First script attempt

build/X86_MESI_THREE_LEVEL/gem5.opt configs/numa/x86_fs_first.py --benchmark gapbs-cc-small




---------- Begin Simulation Statistics ----------
simSeconds                                   0.118145                       # Number of seconds simulated (Second)
simTicks                                 118145476927                       # Number of ticks simulated (Tick)
finalTick                                149245471910558                       # Number of ticks from beginning of simulation (restored from checkpoints and never reset) (Tick)
simFreq                                  1000000000000                       # The number of ticks per simulated second ((Tick/Second))
hostSeconds                                    755.62                       # Real time elapsed on the host (Second)
hostTickRate                                156355581                       # The number of ticks simulated per host second (ticks/s) ((Tick/Second))
hostMemory                                    4318004                       # Number of bytes of host memory used (Byte)
simInsts                                  77586247262                       # Number of instructions simulated (Count)
simOps                                    77727495009                       # Number of ops (including micro ops) simulated (Count)
hostInstRate                                102678846                       # Simulator instruction rate (inst/s) ((Count/Second))
hostOpRate                                  102865775                       # Simulator op (including micro ops) rate (op/s) ((Count/Second))
board.cache_hierarchy.ruby_system.delayHistogram::bucket_size           64                       # delay histogram for all message (Unspecified)
board.cache_hierarchy.ruby_system.delayHistogram::max_bucket          639                       # delay histogram for all message (Unspecified)
board.cache_hierarchy.ruby_system.delayHistogram::samples     37939435                       # delay histogram for all message (Unspecified)
board.cache_hierarchy.ruby_system.delayHistogram::mean     0.244664                       # delay histogram for all message (Unspecified)
board.cache_hierarchy.ruby_system.delayHistogram::stdev     1.439497                       # delay histogram for all message (Unspecified)
board.cache_hierarchy.ruby_system.delayHistogram |    37939425    100.00%    100.00% |           2      0.00%    100.00% |           5      0.00%    100.00% |           0      0.00%    100.00% |           1      0.00%    100.00% |           1      0.00%    100.00% |           0      0.00%    100.00% |           0      0.00%    100.00% |           0      0.00%    100.00% |           1      0.00%    100.00% # delay histogram for all message (Unspecified)
board.cache_hierarchy.ruby_system.delayHistogram::total     37939435                       # delay histogram for all message (Unspecified)
board.cache_hierarchy.ruby_system.m_outstandReqHistSeqr::bucket_size            1                       (Unspecified)
board.cache_hierarchy.ruby_system.m_outstandReqHistSeqr::max_bucket            9                       (Unspecified)
board.cache_hierarchy.ruby_system.m_outstandReqHistSeqr::samples    380519457                       (Unspecified)
board.cache_hierarchy.ruby_system.m_outstandReqHistSeqr::mean     1.000000                       (Unspecified)
board.cache_hierarchy.ruby_system.m_outstandReqHistSeqr::gmean     1.000000                       (Unspecified)
board.cache_hierarchy.ruby_system.m_outstandReqHistSeqr::stdev     0.000223                       (Unspecified)
board.cache_hierarchy.ruby_system.m_outstandReqHistSeqr |           0      0.00%      0.00% |   380519438    100.00%    100.00% |          19      0.00%    100.00% |           0      0.00%    100.00% |           0      0.00%    100.00% |           0      0.00%    100.00% |           0      0.00%    100.00% |           0      0.00%    100.00% |           0      0.00%    100.00% |           0      0.00%    100.00% (Unspecified)
board.cache_hierarchy.ruby_system.m_outstandReqHistSeqr::total    380519457                       (Unspecified)
board.cache_hierarchy.ruby_system.m_latencyHistSeqr::bucket_size          256                       (Unspecified)
board.cache_hierarchy.ruby_system.m_latencyHistSeqr::max_bucket         2559                       (Unspecified)
board.cache_hierarchy.ruby_system.m_latencyHistSeqr::samples    380519454                       (Unspecified)
board.cache_hierarchy.ruby_system.m_latencyHistSeqr::mean     2.702656                       (Unspecified)
board.cache_hierarchy.ruby_system.m_latencyHistSeqr::gmean     1.068464                       (Unspecified)
board.cache_hierarchy.ruby_system.m_latencyHistSeqr::stdev    21.079552                       (Unspecified)
board.cache_hierarchy.ruby_system.m_latencyHistSeqr |   380381226     99.96%     99.96% |       71438      0.02%     99.98% |       15118      0.00%     99.99% |       16303      0.00%     99.99% |       32749      0.01%    100.00% |        2283      0.00%    100.00% |         320      0.00%    100.00% |          17      0.00%    100.00% |           0      0.00%    100.00% |           0      0.00%    100.00% (Unspecified)
board.cache_hierarchy.ruby_system.m_latencyHistSeqr::total    380519454                       (Unspecified)
board.cache_hierarchy.ruby_system.m_hitLatencyHistSeqr::bucket_size            1                       (Unspecified)
board.cache_hierarchy.ruby_system.m_hitLatencyHistSeqr::max_bucket            9                       (Unspecified)
board.cache_hierarchy.ruby_system.m_hitLatencyHistSeqr::samples    373743002                       (Unspecified)
board.cache_hierarchy.ruby_system.m_hitLatencyHistSeqr::mean            1                       (Unspecified)
board.cache_hierarchy.ruby_system.m_hitLatencyHistSeqr::gmean            1                       (Unspecified)
board.cache_hierarchy.ruby_system.m_hitLatencyHistSeqr |           0      0.00%      0.00% |   373743002    100.00%    100.00% |           0      0.00%    100.00% |           0      0.00%    100.00% |           0      0.00%    100.00% |           0      0.00%    100.00% |           0      0.00%    100.00% |           0      0.00%    100.00% |           0      0.00%    100.00% |           0      0.00%    100.00% (Unspecified)
board.cache_hierarchy.ruby_system.m_hitLatencyHistSeqr::total    373743002                       (Unspecified)
board.cache_hierarchy.ruby_system.m_missLatencyHistSeqr::bucket_size          256                       (Unspecified)
board.cache_hierarchy.ruby_system.m_missLatencyHistSeqr::max_bucket         2559                       (Unspecified)
board.cache_hierarchy.ruby_system.m_missLatencyHistSeqr::samples      6776452                       (Unspecified)
board.cache_hierarchy.ruby_system.m_missLatencyHistSeqr::mean    96.609608                       (Unspecified)
board.cache_hierarchy.ruby_system.m_missLatencyHistSeqr::gmean    41.206546                       (Unspecified)
board.cache_hierarchy.ruby_system.m_missLatencyHistSeqr::stdev   126.384848                       (Unspecified)
board.cache_hierarchy.ruby_system.m_missLatencyHistSeqr |     6638224     97.96%     97.96% |       71438      1.05%     99.01% |       15118      0.22%     99.24% |       16303      0.24%     99.48% |       32749      0.48%     99.96% |        2283      0.03%    100.00% |         320      0.00%    100.00% |          17      0.00%    100.00% |           0      0.00%    100.00% |           0      0.00%    100.00% (Unspecified)
board.cache_hierarchy.ruby_system.m_missLatencyHistSeqr::total      6776452                       (Unspecified)
board.cache_hierarchy.ruby_system.delayVCHist.vnet_0::bucket_size           64                       # delay histogram for vnet_0 (Unspecified)
board.cache_hierarchy.ruby_system.delayVCHist.vnet_0::max_bucket          639                       # delay histogram for vnet_0 (Unspecified)
board.cache_hierarchy.ruby_system.delayVCHist.vnet_0::samples     13430191                       # delay histogram for vnet_0 (Unspecified)
board.cache_hierarchy.ruby_system.delayVCHist.vnet_0::mean     0.616701                       # delay histogram for vnet_0 (Unspecified)
board.cache_hierarchy.ruby_system.delayVCHist.vnet_0::stdev     2.295795                       # delay histogram for vnet_0 (Unspecified)
board.cache_hierarchy.ruby_system.delayVCHist.vnet_0 |    13430181    100.00%    100.00% |           2      0.00%    100.00% |           5      0.00%    100.00% |           0      0.00%    100.00% |           1      0.00%    100.00% |           1      0.00%    100.00% |           0      0.00%    100.00% |           0      0.00%    100.00% |           0      0.00%    100.00% |           1      0.00%    100.00% # delay histogram for vnet_0 (Unspecified)
board.cache_hierarchy.ruby_system.delayVCHist.vnet_0::total     13430191                       # delay histogram for vnet_0 (Unspecified)
board.cache_hierarchy.ruby_system.delayVCHist.vnet_1::bucket_size            4                       # delay histogram for vnet_1 (Unspecified)
board.cache_hierarchy.ruby_system.delayVCHist.vnet_1::max_bucket           39                       # delay histogram for vnet_1 (Unspecified)
board.cache_hierarchy.ruby_system.delayVCHist.vnet_1::samples     22554103                       # delay histogram for vnet_1 (Unspecified)
board.cache_hierarchy.ruby_system.delayVCHist.vnet_1::mean     0.036977                       # delay histogram for vnet_1 (Unspecified)
board.cache_hierarchy.ruby_system.delayVCHist.vnet_1::stdev     0.436570                       # delay histogram for vnet_1 (Unspecified)
board.cache_hierarchy.ruby_system.delayVCHist.vnet_1 |    22451528     99.55%     99.55% |       75718      0.34%     99.88% |       26272      0.12%    100.00% |         429      0.00%    100.00% |         155      0.00%    100.00% |           1      0.00%    100.00% |           0      0.00%    100.00% |           0      0.00%    100.00% |           0      0.00%    100.00% |           0      0.00%    100.00% # delay histogram for vnet_1 (Unspecified)
board.cache_hierarchy.ruby_system.delayVCHist.vnet_1::total     22554103                       # delay histogram for vnet_1 (Unspecified)
board.cache_hierarchy.ruby_system.delayVCHist.vnet_2::bucket_size            1                       # delay histogram for vnet_2 (Unspecified)
board.cache_hierarchy.ruby_system.delayVCHist.vnet_2::max_bucket            9                       # delay histogram for vnet_2 (Unspecified)
board.cache_hierarchy.ruby_system.delayVCHist.vnet_2::samples      1955141                       # delay histogram for vnet_2 (Unspecified)
board.cache_hierarchy.ruby_system.delayVCHist.vnet_2::mean     0.084907                       # delay histogram for vnet_2 (Unspecified)
board.cache_hierarchy.ruby_system.delayVCHist.vnet_2::stdev     0.576505                       # delay histogram for vnet_2 (Unspecified)
board.cache_hierarchy.ruby_system.delayVCHist.vnet_2 |     1913617     97.88%     97.88% |           0      0.00%     97.88% |          52      0.00%     97.88% |           0      0.00%     97.88% |       41465      2.12%    100.00% |           1      0.00%    100.00% |           5      0.00%    100.00% |           1      0.00%    100.00% |           0      0.00%    100.00% |           0      0.00%    100.00% # delay histogram for vnet_2 (Unspecified)
board.cache_hierarchy.ruby_system.delayVCHist.vnet_2::total      1955141                       # delay histogram for vnet_2 (Unspecified)
board.cache_hierarchy.ruby_system.Directory_Controller.Fetch |     1532731     49.98%     49.98% |     1534099     50.02%    100.00% (Unspecified)
board.cache_hierarchy.ruby_system.Directory_Controller.Fetch::total      3066830                       (Unspecified)
board.cache_hierarchy.ruby_system.Directory_Controller.Data |      254572     49.95%     49.95% |      255098     50.05%    100.00% (Unspecified)
board.cache_hierarchy.ruby_system.Directory_Controller.Data::total       509670                       (Unspecified)
board.cache_hierarchy.ruby_system.Directory_Controller.Memory_Data |     1532731     49.98%     49.98% |     1534099     50.02%    100.00% (Unspecified)
board.cache_hierarchy.ruby_system.Directory_Controller.Memory_Data::total      3066830                       (Unspecified)
board.cache_hierarchy.ruby_system.Directory_Controller.Memory_Ack |      254572     49.95%     49.95% |      255098     50.05%    100.00% (Unspecified)
board.cache_hierarchy.ruby_system.Directory_Controller.Memory_Ack::total       509670                       (Unspecified)
board.cache_hierarchy.ruby_system.Directory_Controller.CleanReplacement |     1212623     49.98%     49.98% |     1213465     50.02%    100.00% (Unspecified)
board.cache_hierarchy.ruby_system.Directory_Controller.CleanReplacement::total      2426088                       (Unspecified)
board.cache_hierarchy.ruby_system.Directory_Controller.I.Fetch |     1532731     49.98%     49.98% |     1534099     50.02%    100.00% (Unspecified)
board.cache_hierarchy.ruby_system.Directory_Controller.I.Fetch::total      3066830                       (Unspecified)
board.cache_hierarchy.ruby_system.Directory_Controller.M.Data |      254572     49.95%     49.95% |      255098     50.05%    100.00% (Unspecified)
board.cache_hierarchy.ruby_system.Directory_Controller.M.Data::total       509670                       (Unspecified)
board.cache_hierarchy.ruby_system.Directory_Controller.M.CleanReplacement |     1212623     49.98%     49.98% |     1213465     50.02%    100.00% (Unspecified)
board.cache_hierarchy.ruby_system.Directory_Controller.M.CleanReplacement::total      2426088                       (Unspecified)
board.cache_hierarchy.ruby_system.Directory_Controller.IM.Memory_Data |     1532731     49.98%     49.98% |     1534099     50.02%    100.00% (Unspecified)
board.cache_hierarchy.ruby_system.Directory_Controller.IM.Memory_Data::total      3066830                       (Unspecified)
board.cache_hierarchy.ruby_system.Directory_Controller.MI.Memory_Ack |      254572     49.95%     49.95% |      255098     50.05%    100.00% (Unspecified)
board.cache_hierarchy.ruby_system.Directory_Controller.MI.Memory_Ack::total       509670                       (Unspecified)
board.cache_hierarchy.ruby_system.L0Cache_Controller.Load |    16934204     24.93%     24.93% |    16847725     24.80%     49.73% |    17049214     25.10%     74.83% |    17100586     25.17%    100.00% (Unspecified)
board.cache_hierarchy.ruby_system.L0Cache_Controller.Load::total     67931729                       (Unspecified)
board.cache_hierarchy.ruby_system.L0Cache_Controller.Ifetch |    75533812     24.64%     24.64% |    76356967     24.90%     49.54% |    77129334     25.16%     74.70% |    77580344     25.30%    100.00% (Unspecified)
board.cache_hierarchy.ruby_system.L0Cache_Controller.Ifetch::total    306600457                       (Unspecified)
board.cache_hierarchy.ruby_system.L0Cache_Controller.Store |     1432786     23.93%     23.93% |     1693565     28.29%     52.22% |     1433324     23.94%     76.16% |     1427594     23.84%    100.00% (Unspecified)
board.cache_hierarchy.ruby_system.L0Cache_Controller.Store::total      5987269                       (Unspecified)
board.cache_hierarchy.ruby_system.L0Cache_Controller.InvOwn |      374298     25.34%     25.34% |      367034     24.84%     50.18% |      368703     24.96%     75.14% |      367345     24.86%    100.00% (Unspecified)
board.cache_hierarchy.ruby_system.L0Cache_Controller.InvOwn::total      1477380                       (Unspecified)
board.cache_hierarchy.ruby_system.L0Cache_Controller.InvElse |       11046     26.63%     26.63% |       10019     24.16%     50.79% |       10353     24.96%     75.76% |       10054     24.24%    100.00% (Unspecified)
board.cache_hierarchy.ruby_system.L0Cache_Controller.InvElse::total        41472                       (Unspecified)
board.cache_hierarchy.ruby_system.L0Cache_Controller.L0_Replacement |     1632266     24.86%     24.86% |     1660260     25.29%     50.15% |     1638756     24.96%     75.10% |     1634691     24.90%    100.00% (Unspecified)
board.cache_hierarchy.ruby_system.L0Cache_Controller.L0_Replacement::total      6565973                       (Unspecified)
board.cache_hierarchy.ruby_system.L0Cache_Controller.Data |      692405     25.01%     25.01% |      689353     24.90%     49.91% |      694574     25.09%     74.99% |      692410     25.01%    100.00% (Unspecified)
board.cache_hierarchy.ruby_system.L0Cache_Controller.Data::total      2768742                       (Unspecified)
board.cache_hierarchy.ruby_system.L0Cache_Controller.Data_Exclusive |      996019     24.85%     24.85% |     1023336     25.53%     50.39% |      994674     24.82%     75.21% |      993672     24.79%    100.00% (Unspecified)
board.cache_hierarchy.ruby_system.L0Cache_Controller.Data_Exclusive::total      4007701                       (Unspecified)
board.cache_hierarchy.ruby_system.L0Cache_Controller.Data_Stale |           0      0.00%      0.00% |           1     11.11%     11.11% |           4     44.44%     55.56% |           4     44.44%    100.00% (Unspecified)
board.cache_hierarchy.ruby_system.L0Cache_Controller.Data_Stale::total            9                       (Unspecified)
board.cache_hierarchy.ruby_system.L0Cache_Controller.I.Load |     1622132     25.03%     25.03% |     1615864     24.94%     49.97% |     1622722     25.04%     75.01% |     1619535     24.99%    100.00% (Unspecified)
board.cache_hierarchy.ruby_system.L0Cache_Controller.I.Load::total      6480253                       (Unspecified)
board.cache_hierarchy.ruby_system.L0Cache_Controller.I.Ifetch |       28728     30.29%     30.29% |       22274     23.49%     53.78% |       22099     23.30%     77.09% |       21729     22.91%    100.00% (Unspecified)
board.cache_hierarchy.ruby_system.L0Cache_Controller.I.Ifetch::total        94830                       (Unspecified)
board.cache_hierarchy.ruby_system.L0Cache_Controller.I.Store |       23040     16.43%     16.43% |       58465     41.70%     58.13% |       29642     21.14%     79.27% |       29058     20.73%    100.00% (Unspecified)
board.cache_hierarchy.ruby_system.L0Cache_Controller.I.Store::total       140205                       (Unspecified)
board.cache_hierarchy.ruby_system.L0Cache_Controller.I.InvOwn |      339805     25.08%     25.08% |      337454     24.91%     49.98% |      339437     25.05%     75.04% |      338244     24.96%    100.00% (Unspecified)
board.cache_hierarchy.ruby_system.L0Cache_Controller.I.InvOwn::total      1354940                       (Unspecified)
board.cache_hierarchy.ruby_system.L0Cache_Controller.I.InvElse |        4417     26.54%     26.54% |        3768     22.64%     49.17% |        4426     26.59%     75.76% |        4034     24.24%    100.00% (Unspecified)
board.cache_hierarchy.ruby_system.L0Cache_Controller.I.InvElse::total        16645                       (Unspecified)
board.cache_hierarchy.ruby_system.L0Cache_Controller.S.Load |     8175090     24.63%     24.63% |     8149189     24.55%     49.18% |     8410564     25.34%     74.51% |     8459705     25.49%    100.00% (Unspecified)
board.cache_hierarchy.ruby_system.L0Cache_Controller.S.Load::total     33194548                       (Unspecified)
board.cache_hierarchy.ruby_system.L0Cache_Controller.S.Ifetch |    74921339     24.59%     24.59% |    75111072     24.65%     49.24% |    77104416     25.31%     74.55% |    77557563     25.45%    100.00% (Unspecified)
board.cache_hierarchy.ruby_system.L0Cache_Controller.S.Ifetch::total    304694390                       (Unspecified)
board.cache_hierarchy.ruby_system.L0Cache_Controller.S.Store |       14524     23.75%     23.75% |       16088     26.30%     50.05% |       14789     24.18%     74.23% |       15764     25.77%    100.00% (Unspecified)
board.cache_hierarchy.ruby_system.L0Cache_Controller.S.Store::total        61165                       (Unspecified)
board.cache_hierarchy.ruby_system.L0Cache_Controller.S.InvOwn |       29027     24.92%     24.92% |       29207     25.07%     49.99% |       29190     25.06%     75.04% |       29073     24.96%    100.00% (Unspecified)
board.cache_hierarchy.ruby_system.L0Cache_Controller.S.InvOwn::total       116497                       (Unspecified)
board.cache_hierarchy.ruby_system.L0Cache_Controller.S.InvElse |        1520     27.27%     27.27% |        1101     19.75%     47.02% |        1444     25.91%     72.93% |        1509     27.07%    100.00% (Unspecified)
board.cache_hierarchy.ruby_system.L0Cache_Controller.S.InvElse::total         5574                       (Unspecified)
board.cache_hierarchy.ruby_system.L0Cache_Controller.S.L0_Replacement |      647329     25.04%     25.04% |      642956     24.87%     49.90% |      649150     25.11%     75.01% |      646063     24.99%    100.00% (Unspecified)
board.cache_hierarchy.ruby_system.L0Cache_Controller.S.L0_Replacement::total      2585498                       (Unspecified)
board.cache_hierarchy.ruby_system.L0Cache_Controller.E.Load |     4546222     24.98%     24.98% |     4546045     24.98%     49.97% |     4540932     24.96%     74.92% |     4562612     25.08%    100.00% (Unspecified)
board.cache_hierarchy.ruby_system.L0Cache_Controller.E.Load::total     18195811                       (Unspecified)
board.cache_hierarchy.ruby_system.L0Cache_Controller.E.Ifetch |      583745     32.23%     32.23% |     1223621     67.56%     99.79% |        2819      0.16%     99.94% |        1052      0.06%    100.00% (Unspecified)
board.cache_hierarchy.ruby_system.L0Cache_Controller.E.Ifetch::total      1811237                       (Unspecified)
board.cache_hierarchy.ruby_system.L0Cache_Controller.E.Store |      137927     25.23%     25.23% |      135694     24.83%     50.06% |      136746     25.02%     75.08% |      136225     24.92%    100.00% (Unspecified)
board.cache_hierarchy.ruby_system.L0Cache_Controller.E.Store::total       546592                       (Unspecified)
board.cache_hierarchy.ruby_system.L0Cache_Controller.E.InvOwn |        5440     93.12%     93.12% |         348      5.96%     99.08% |          50      0.86%     99.93% |           4      0.07%    100.00% (Unspecified)
board.cache_hierarchy.ruby_system.L0Cache_Controller.E.InvOwn::total         5842                       (Unspecified)
board.cache_hierarchy.ruby_system.L0Cache_Controller.E.InvElse |        3171     27.38%     27.38% |        2679     23.13%     50.52% |        3092     26.70%     77.22% |        2638     22.78%    100.00% (Unspecified)
board.cache_hierarchy.ruby_system.L0Cache_Controller.E.InvElse::total        11580                       (Unspecified)
board.cache_hierarchy.ruby_system.L0Cache_Controller.E.L0_Replacement |      811916     25.04%     25.04% |      810063     24.98%     50.03% |      810355     24.99%     75.02% |      809983     24.98%    100.00% (Unspecified)
board.cache_hierarchy.ruby_system.L0Cache_Controller.E.L0_Replacement::total      3242317                       (Unspecified)
board.cache_hierarchy.ruby_system.L0Cache_Controller.M.Load |     2590760     25.75%     25.75% |     2536627     25.21%     50.96% |     2474996     24.60%     75.56% |     2458734     24.44%    100.00% (Unspecified)
board.cache_hierarchy.ruby_system.L0Cache_Controller.M.Load::total     10061117                       (Unspecified)
board.cache_hierarchy.ruby_system.L0Cache_Controller.M.Store |     1257295     24.00%     24.00% |     1483318     28.31%     52.31% |     1252147     23.90%     76.21% |     1246547     23.79%    100.00% (Unspecified)
board.cache_hierarchy.ruby_system.L0Cache_Controller.M.Store::total      5239307                       (Unspecified)
board.cache_hierarchy.ruby_system.L0Cache_Controller.M.InvOwn |          26     25.74%     25.74% |          25     24.75%     50.50% |          26     25.74%     76.24% |          24     23.76%    100.00% (Unspecified)
board.cache_hierarchy.ruby_system.L0Cache_Controller.M.InvOwn::total          101                       (Unspecified)
board.cache_hierarchy.ruby_system.L0Cache_Controller.M.InvElse |        1937     25.29%     25.29% |        2469     32.23%     57.52% |        1388     18.12%     75.64% |        1866     24.36%    100.00% (Unspecified)
board.cache_hierarchy.ruby_system.L0Cache_Controller.M.InvElse::total         7660                       (Unspecified)
board.cache_hierarchy.ruby_system.L0Cache_Controller.M.L0_Replacement |      173021     23.44%     23.44% |      207241     28.08%     51.51% |      179251     24.28%     75.80% |      178645     24.20%    100.00% (Unspecified)
board.cache_hierarchy.ruby_system.L0Cache_Controller.M.L0_Replacement::total       738158                       (Unspecified)
board.cache_hierarchy.ruby_system.L0Cache_Controller.Inst_IS.Data |       22025     25.18%     25.18% |       21867     25.00%     50.18% |       21870     25.00%     75.18% |       21711     24.82%    100.00% (Unspecified)
board.cache_hierarchy.ruby_system.L0Cache_Controller.Inst_IS.Data::total        87473                       (Unspecified)
board.cache_hierarchy.ruby_system.L0Cache_Controller.Inst_IS.Data_Exclusive |        6703     91.11%     91.11% |         407      5.53%     96.64% |         229      3.11%     99.76% |          18      0.24%    100.00% (Unspecified)
board.cache_hierarchy.ruby_system.L0Cache_Controller.Inst_IS.Data_Exclusive::total         7357                       (Unspecified)
board.cache_hierarchy.ruby_system.L0Cache_Controller.IS.Data |      670380     25.00%     25.00% |      667486     24.89%     49.90% |      672704     25.09%     74.99% |      670699     25.01%    100.00% (Unspecified)
board.cache_hierarchy.ruby_system.L0Cache_Controller.IS.Data::total      2681269                       (Unspecified)
board.cache_hierarchy.ruby_system.L0Cache_Controller.IS.Data_Exclusive |      951752     25.05%     25.05% |      948377     24.96%     50.02% |      950014     25.01%     75.02% |      948832     24.98%    100.00% (Unspecified)
board.cache_hierarchy.ruby_system.L0Cache_Controller.IS.Data_Exclusive::total      3798975                       (Unspecified)
board.cache_hierarchy.ruby_system.L0Cache_Controller.IS.Data_Stale |           0      0.00%      0.00% |           1     11.11%     11.11% |           4     44.44%     55.56% |           4     44.44%    100.00% (Unspecified)
board.cache_hierarchy.ruby_system.L0Cache_Controller.IS.Data_Stale::total            9                       (Unspecified)
board.cache_hierarchy.ruby_system.L0Cache_Controller.IM.Data_Exclusive |       23041     16.43%     16.43% |       58466     41.70%     58.13% |       29645     21.14%     79.27% |       29065     20.73%    100.00% (Unspecified)
board.cache_hierarchy.ruby_system.L0Cache_Controller.IM.Data_Exclusive::total       140217                       (Unspecified)
board.cache_hierarchy.ruby_system.L0Cache_Controller.SM.InvElse |           1      7.69%      7.69% |           2     15.38%     23.08% |           3     23.08%     46.15% |           7     53.85%    100.00% (Unspecified)
board.cache_hierarchy.ruby_system.L0Cache_Controller.SM.InvElse::total           13                       (Unspecified)
board.cache_hierarchy.ruby_system.L0Cache_Controller.SM.Data_Exclusive |       14523     23.75%     23.75% |       16086     26.30%     50.05% |       14786     24.18%     74.23% |       15757     25.77%    100.00% (Unspecified)
board.cache_hierarchy.ruby_system.L0Cache_Controller.SM.Data_Exclusive::total        61152                       (Unspecified)
board.cache_hierarchy.ruby_system.L1Cache_Controller.Load |     1650860     25.11%     25.11% |     1638138     24.91%     50.02% |     1644821     25.02%     75.04% |     1641264     24.96%    100.00% (Unspecified)
board.cache_hierarchy.ruby_system.L1Cache_Controller.Load::total      6575083                       (Unspecified)
board.cache_hierarchy.ruby_system.L1Cache_Controller.Store |       37564     18.65%     18.65% |       74554     37.02%     55.68% |       44432     22.06%     77.74% |       44827     22.26%    100.00% (Unspecified)
board.cache_hierarchy.ruby_system.L1Cache_Controller.Store::total       201377                       (Unspecified)
board.cache_hierarchy.ruby_system.L1Cache_Controller.WriteBack |      984937     24.74%     24.74% |     1017304     25.56%     50.30% |      989606     24.86%     75.16% |      988628     24.84%    100.00% (Unspecified)
board.cache_hierarchy.ruby_system.L1Cache_Controller.WriteBack::total      3980475                       (Unspecified)
board.cache_hierarchy.ruby_system.L1Cache_Controller.L0_DataAck |        1963     25.29%     25.29% |        2494     32.14%     57.43% |        1414     18.22%     75.65% |        1890     24.35%    100.00% (Unspecified)
board.cache_hierarchy.ruby_system.L1Cache_Controller.L0_DataAck::total         7761                       (Unspecified)
board.cache_hierarchy.ruby_system.L1Cache_Controller.Inv |       78515     25.11%     25.11% |       77161     24.68%     49.79% |       79068     25.29%     75.08% |       77932     24.92%    100.00% (Unspecified)
board.cache_hierarchy.ruby_system.L1Cache_Controller.Inv::total       312676                       (Unspecified)
board.cache_hierarchy.ruby_system.L1Cache_Controller.L0_Invalidate_Own |      748596     25.34%     25.34% |      734068     24.84%     50.18% |      737406     24.96%     75.14% |      734690     24.86%    100.00% (Unspecified)
board.cache_hierarchy.ruby_system.L1Cache_Controller.L0_Invalidate_Own::total      2954760                       (Unspecified)
board.cache_hierarchy.ruby_system.L1Cache_Controller.L0_Invalidate_Else |       22092     26.63%     26.63% |       20038     24.16%     50.79% |       20706     24.96%     75.76% |       20108     24.24%    100.00% (Unspecified)
board.cache_hierarchy.ruby_system.L1Cache_Controller.L0_Invalidate_Else::total        82944                       (Unspecified)
board.cache_hierarchy.ruby_system.L1Cache_Controller.L1_Replacement |     1343714     24.90%     24.90% |     1369450     25.38%     50.28% |     1341891     24.87%     75.16% |     1340526     24.84%    100.00% (Unspecified)
board.cache_hierarchy.ruby_system.L1Cache_Controller.L1_Replacement::total      5395581                       (Unspecified)
board.cache_hierarchy.ruby_system.L1Cache_Controller.Fwd_GETX |         242     26.68%     26.68% |         269     29.66%     56.34% |         159     17.53%     73.87% |         237     26.13%    100.00% (Unspecified)
board.cache_hierarchy.ruby_system.L1Cache_Controller.Fwd_GETX::total          907                       (Unspecified)
board.cache_hierarchy.ruby_system.L1Cache_Controller.Fwd_GETS |       30874     25.16%     25.16% |       30968     25.24%     50.40% |       30337     24.72%     75.12% |       30529     24.88%    100.00% (Unspecified)
board.cache_hierarchy.ruby_system.L1Cache_Controller.Fwd_GETS::total       122708                       (Unspecified)
board.cache_hierarchy.ruby_system.L1Cache_Controller.Data |         386     78.46%     78.46% |          35      7.11%     85.57% |          35      7.11%     92.68% |          36      7.32%    100.00% (Unspecified)
board.cache_hierarchy.ruby_system.L1Cache_Controller.Data::total          492                       (Unspecified)
board.cache_hierarchy.ruby_system.L1Cache_Controller.Data_Exclusive |      948634     25.18%     25.18% |      939470     24.94%     50.12% |      940078     24.95%     75.07% |      939206     24.93%    100.00% (Unspecified)
board.cache_hierarchy.ruby_system.L1Cache_Controller.Data_Exclusive::total      3767388                       (Unspecified)
board.cache_hierarchy.ruby_system.L1Cache_Controller.DataS_fromL1 |       30477     24.84%     24.84% |       30533     24.88%     49.72% |       31083     25.33%     75.05% |       30613     24.95%    100.00% (Unspecified)
board.cache_hierarchy.ruby_system.L1Cache_Controller.DataS_fromL1::total       122706                       (Unspecified)
board.cache_hierarchy.ruby_system.L1Cache_Controller.Data_all_Acks |      378539     24.26%     24.26% |      412393     26.43%     50.69% |      385082     24.68%     75.37% |      384271     24.63%    100.00% (Unspecified)
board.cache_hierarchy.ruby_system.L1Cache_Controller.Data_all_Acks::total      1560285                       (Unspecified)
board.cache_hierarchy.ruby_system.L1Cache_Controller.L0_Ack |      383381     25.37%     25.37% |      374559     24.79%     50.16% |      377642     24.99%     75.15% |      375509     24.85%    100.00% (Unspecified)
board.cache_hierarchy.ruby_system.L1Cache_Controller.L0_Ack::total      1511091                       (Unspecified)
board.cache_hierarchy.ruby_system.L1Cache_Controller.Ack |       32323     24.42%     24.42% |       35029     26.47%     50.89% |       31388     23.72%     74.61% |       33607     25.39%    100.00% (Unspecified)
board.cache_hierarchy.ruby_system.L1Cache_Controller.Ack::total       132347                       (Unspecified)
board.cache_hierarchy.ruby_system.L1Cache_Controller.Ack_all |       14949     24.23%     24.23% |       16133     26.15%     50.38% |       14822     24.02%     74.40% |       15795     25.60%    100.00% (Unspecified)
board.cache_hierarchy.ruby_system.L1Cache_Controller.Ack_all::total        61699                       (Unspecified)
board.cache_hierarchy.ruby_system.L1Cache_Controller.WB_Ack |      950665     24.84%     24.84% |      978410     25.56%     50.40% |      949646     24.81%     75.21% |      948882     24.79%    100.00% (Unspecified)
board.cache_hierarchy.ruby_system.L1Cache_Controller.WB_Ack::total      3827603                       (Unspecified)
board.cache_hierarchy.ruby_system.L1Cache_Controller.I.Load |     1335315     25.14%     25.14% |     1324199     24.93%     50.07% |     1326859     24.98%     75.05% |     1325290     24.95%    100.00% (Unspecified)
board.cache_hierarchy.ruby_system.L1Cache_Controller.I.Load::total      5311663                       (Unspecified)
board.cache_hierarchy.ruby_system.L1Cache_Controller.I.Store |       22720     16.32%     16.32% |       58232     41.83%     58.15% |       29417     21.13%     79.29% |       28834     20.71%    100.00% (Unspecified)
board.cache_hierarchy.ruby_system.L1Cache_Controller.I.Store::total       139203                       (Unspecified)
board.cache_hierarchy.ruby_system.L1Cache_Controller.I.Inv |       68531     24.95%     24.95% |       68544     24.95%     49.90% |       68936     25.10%     75.00% |       68665     25.00%    100.00% (Unspecified)
board.cache_hierarchy.ruby_system.L1Cache_Controller.I.Inv::total       274676                       (Unspecified)
board.cache_hierarchy.ruby_system.L1Cache_Controller.S.Load |      303092     24.97%     24.97% |      301734     24.86%     49.83% |      305287     25.15%     74.97% |      303786     25.03%    100.00% (Unspecified)
board.cache_hierarchy.ruby_system.L1Cache_Controller.S.Load::total      1213899                       (Unspecified)
board.cache_hierarchy.ruby_system.L1Cache_Controller.S.Store |       14534     23.76%     23.76% |       16087     26.30%     50.06% |       14788     24.18%     74.24% |       15759     25.76%    100.00% (Unspecified)
board.cache_hierarchy.ruby_system.L1Cache_Controller.S.Store::total        61168                       (Unspecified)
board.cache_hierarchy.ruby_system.L1Cache_Controller.S.L0_Invalidate_Own |      368832     25.07%     25.07% |      366661     24.92%     49.98% |      368627     25.05%     75.04% |      367317     24.96%    100.00% (Unspecified)
board.cache_hierarchy.ruby_system.L1Cache_Controller.S.L0_Invalidate_Own::total      1471437                       (Unspecified)
board.cache_hierarchy.ruby_system.L1Cache_Controller.S.L0_Invalidate_Else |        5936     26.71%     26.71% |        4870     21.91%     48.62% |        5871     26.42%     75.04% |        5547     24.96%    100.00% (Unspecified)
board.cache_hierarchy.ruby_system.L1Cache_Controller.S.L0_Invalidate_Else::total        22224                       (Unspecified)
board.cache_hierarchy.ruby_system.L1Cache_Controller.SS.Load |        2632     24.88%     24.88% |        2891     27.33%     52.22% |        2510     23.73%     75.95% |        2544     24.05%    100.00% (Unspecified)
board.cache_hierarchy.ruby_system.L1Cache_Controller.SS.Load::total        10577                       (Unspecified)
board.cache_hierarchy.ruby_system.L1Cache_Controller.SS.Store |          30     66.67%     66.67% |          12     26.67%     93.33% |           1      2.22%     95.56% |           2      4.44%    100.00% (Unspecified)
board.cache_hierarchy.ruby_system.L1Cache_Controller.SS.Store::total           45                       (Unspecified)
board.cache_hierarchy.ruby_system.L1Cache_Controller.SS.Inv |        9929     26.29%     26.29% |        8557     22.66%     48.95% |       10079     26.69%     75.63% |        9202     24.37%    100.00% (Unspecified)
board.cache_hierarchy.ruby_system.L1Cache_Controller.SS.Inv::total        37767                       (Unspecified)
board.cache_hierarchy.ruby_system.L1Cache_Controller.SS.L1_Replacement |      393049     25.07%     25.07% |      391039     24.94%     50.01% |      392245     25.02%     75.02% |      391644     24.98%    100.00% (Unspecified)
board.cache_hierarchy.ruby_system.L1Cache_Controller.SS.L1_Replacement::total      1567977                       (Unspecified)
board.cache_hierarchy.ruby_system.L1Cache_Controller.E.WriteBack |      939885     25.07%     25.07% |      936069     24.97%     50.04% |      936744     24.99%     75.03% |      936194     24.97%    100.00% (Unspecified)
board.cache_hierarchy.ruby_system.L1Cache_Controller.E.WriteBack::total      3748892                       (Unspecified)
board.cache_hierarchy.ruby_system.L1Cache_Controller.E.L0_Invalidate_Own |        5276     91.76%     91.76% |         372      6.47%     98.23% |          75      1.30%     99.53% |          27      0.47%    100.00% (Unspecified)
board.cache_hierarchy.ruby_system.L1Cache_Controller.E.L0_Invalidate_Own::total         5750                       (Unspecified)
board.cache_hierarchy.ruby_system.L1Cache_Controller.E.L0_Invalidate_Else |        3472     27.24%     27.24% |        3029     23.77%     51.01% |        3259     25.57%     76.58% |        2985     23.42%    100.00% (Unspecified)
board.cache_hierarchy.ruby_system.L1Cache_Controller.E.L0_Invalidate_Else::total        12745                       (Unspecified)
board.cache_hierarchy.ruby_system.L1Cache_Controller.EE.Inv |           1     50.00%     50.00% |           0      0.00%     50.00% |           1     50.00%    100.00% |           0      0.00%    100.00% (Unspecified)
board.cache_hierarchy.ruby_system.L1Cache_Controller.EE.Inv::total            2                       (Unspecified)
board.cache_hierarchy.ruby_system.L1Cache_Controller.EE.L1_Replacement |        5254     92.89%     92.89% |         348      6.15%     99.05% |          50      0.88%     99.93% |           4      0.07%    100.00% (Unspecified)
board.cache_hierarchy.ruby_system.L1Cache_Controller.EE.L1_Replacement::total         5656                       (Unspecified)
board.cache_hierarchy.ruby_system.L1Cache_Controller.EE.Fwd_GETX |           1      3.85%      3.85% |           9     34.62%     38.46% |           8     30.77%     69.23% |           8     30.77%    100.00% (Unspecified)
board.cache_hierarchy.ruby_system.L1Cache_Controller.EE.Fwd_GETX::total           26                       (Unspecified)
board.cache_hierarchy.ruby_system.L1Cache_Controller.EE.Fwd_GETS |        2895     27.86%     27.86% |        2419     23.28%     51.14% |        2752     26.48%     77.62% |        2325     22.38%    100.00% (Unspecified)
board.cache_hierarchy.ruby_system.L1Cache_Controller.EE.Fwd_GETS::total        10391                       (Unspecified)
board.cache_hierarchy.ruby_system.L1Cache_Controller.M.WriteBack |       45051     19.45%     19.45% |       81235     35.08%     54.53% |       52862     22.83%     77.36% |       52433     22.64%    100.00% (Unspecified)
board.cache_hierarchy.ruby_system.L1Cache_Controller.M.WriteBack::total       231581                       (Unspecified)
board.cache_hierarchy.ruby_system.L1Cache_Controller.M.L0_Invalidate_Own |         190     98.45%     98.45% |           1      0.52%     98.96% |           1      0.52%     99.48% |           1      0.52%    100.00% (Unspecified)
board.cache_hierarchy.ruby_system.L1Cache_Controller.M.L0_Invalidate_Own::total          193                       (Unspecified)
board.cache_hierarchy.ruby_system.L1Cache_Controller.M.L0_Invalidate_Else |        1637     25.20%     25.20% |        2119     32.62%     57.81% |        1221     18.79%     76.60% |        1520     23.40%    100.00% (Unspecified)
board.cache_hierarchy.ruby_system.L1Cache_Controller.M.L0_Invalidate_Else::total         6497                       (Unspecified)
board.cache_hierarchy.ruby_system.L1Cache_Controller.MM.Load |        9821     25.22%     25.22% |        9314     23.92%     49.13% |       10165     26.10%     75.24% |        9644     24.76%    100.00% (Unspecified)
board.cache_hierarchy.ruby_system.L1Cache_Controller.MM.Load::total        38944                       (Unspecified)
board.cache_hierarchy.ruby_system.L1Cache_Controller.MM.Store |         280     29.35%     29.35% |         222     23.27%     52.62% |         225     23.58%     76.21% |         227     23.79%    100.00% (Unspecified)
board.cache_hierarchy.ruby_system.L1Cache_Controller.MM.Store::total          954                       (Unspecified)
board.cache_hierarchy.ruby_system.L1Cache_Controller.MM.Inv |          53     24.54%     24.54% |          58     26.85%     51.39% |          46     21.30%     72.69% |          59     27.31%    100.00% (Unspecified)
board.cache_hierarchy.ruby_system.L1Cache_Controller.MM.Inv::total          216                       (Unspecified)
board.cache_hierarchy.ruby_system.L1Cache_Controller.MM.L1_Replacement |      945411     24.74%     24.74% |      978063     25.59%     50.33% |      949596     24.85%     75.17% |      948878     24.83%    100.00% (Unspecified)
board.cache_hierarchy.ruby_system.L1Cache_Controller.MM.L1_Replacement::total      3821948                       (Unspecified)
board.cache_hierarchy.ruby_system.L1Cache_Controller.MM.Fwd_GETX |         241     27.36%     27.36% |         260     29.51%     56.87% |         151     17.14%     74.01% |         229     25.99%    100.00% (Unspecified)
board.cache_hierarchy.ruby_system.L1Cache_Controller.MM.Fwd_GETX::total          881                       (Unspecified)
board.cache_hierarchy.ruby_system.L1Cache_Controller.MM.Fwd_GETS |       27977     24.91%     24.91% |       28549     25.42%     50.33% |       27585     24.56%     74.89% |       28203     25.11%    100.00% (Unspecified)
board.cache_hierarchy.ruby_system.L1Cache_Controller.MM.Fwd_GETS::total       112314                       (Unspecified)
board.cache_hierarchy.ruby_system.L1Cache_Controller.IS.Inv |           0      0.00%      0.00% |           1     11.11%     11.11% |           4     44.44%     55.56% |           4     44.44%    100.00% (Unspecified)
board.cache_hierarchy.ruby_system.L1Cache_Controller.IS.Inv::total            9                       (Unspecified)
board.cache_hierarchy.ruby_system.L1Cache_Controller.IS.Data_Exclusive |      948634     25.18%     25.18% |      939470     24.94%     50.12% |      940078     24.95%     75.07% |      939206     24.93%    100.00% (Unspecified)
board.cache_hierarchy.ruby_system.L1Cache_Controller.IS.Data_Exclusive::total      3767388                       (Unspecified)
board.cache_hierarchy.ruby_system.L1Cache_Controller.IS.DataS_fromL1 |       30477     24.84%     24.84% |       30533     24.88%     49.72% |       31083     25.33%     75.05% |       30613     24.95%    100.00% (Unspecified)
board.cache_hierarchy.ruby_system.L1Cache_Controller.IS.DataS_fromL1::total       122706                       (Unspecified)
board.cache_hierarchy.ruby_system.L1Cache_Controller.IS.Data_all_Acks |      356204     25.06%     25.06% |      354195     24.92%     49.97% |      355694     25.02%     74.99% |      355467     25.01%    100.00% (Unspecified)
board.cache_hierarchy.ruby_system.L1Cache_Controller.IS.Data_all_Acks::total      1421560                       (Unspecified)
board.cache_hierarchy.ruby_system.L1Cache_Controller.IM.Inv |           1     16.67%     16.67% |           1     16.67%     33.33% |           2     33.33%     66.67% |           2     33.33%    100.00% (Unspecified)
board.cache_hierarchy.ruby_system.L1Cache_Controller.IM.Inv::total            6                       (Unspecified)
board.cache_hierarchy.ruby_system.L1Cache_Controller.IM.Data |         386     78.46%     78.46% |          35      7.11%     85.57% |          35      7.11%     92.68% |          36      7.32%    100.00% (Unspecified)
board.cache_hierarchy.ruby_system.L1Cache_Controller.IM.Data::total          492                       (Unspecified)
board.cache_hierarchy.ruby_system.L1Cache_Controller.IM.Data_all_Acks |       22335     16.10%     16.10% |       58197     41.95%     58.06% |       29384     21.18%     79.24% |       28800     20.76%    100.00% (Unspecified)
board.cache_hierarchy.ruby_system.L1Cache_Controller.IM.Data_all_Acks::total       138716                       (Unspecified)
board.cache_hierarchy.ruby_system.L1Cache_Controller.SM.L0_Invalidate_Else |           1     16.67%     16.67% |           1     16.67%     33.33% |           2     33.33%     66.67% |           2     33.33%    100.00% (Unspecified)
board.cache_hierarchy.ruby_system.L1Cache_Controller.SM.L0_Invalidate_Else::total            6                       (Unspecified)
board.cache_hierarchy.ruby_system.L1Cache_Controller.SM.Ack |       32323     24.42%     24.42% |       35029     26.47%     50.89% |       31388     23.72%     74.61% |       33607     25.39%    100.00% (Unspecified)
board.cache_hierarchy.ruby_system.L1Cache_Controller.SM.Ack::total       132347                       (Unspecified)
board.cache_hierarchy.ruby_system.L1Cache_Controller.SM.Ack_all |       14949     24.23%     24.23% |       16133     26.15%     50.38% |       14822     24.02%     74.40% |       15795     25.60%    100.00% (Unspecified)
board.cache_hierarchy.ruby_system.L1Cache_Controller.SM.Ack_all::total        61699                       (Unspecified)
board.cache_hierarchy.ruby_system.L1Cache_Controller.IS_I.Data_all_Acks |           0      0.00%      0.00% |           1     11.11%     11.11% |           4     44.44%     55.56% |           4     44.44%    100.00% (Unspecified)
board.cache_hierarchy.ruby_system.L1Cache_Controller.IS_I.Data_all_Acks::total            9                       (Unspecified)
board.cache_hierarchy.ruby_system.L1Cache_Controller.M_I.Fwd_GETS |           1    100.00%    100.00% |           0      0.00%    100.00% |           0      0.00%    100.00% |           0      0.00%    100.00% (Unspecified)
board.cache_hierarchy.ruby_system.L1Cache_Controller.M_I.Fwd_GETS::total            1                       (Unspecified)
board.cache_hierarchy.ruby_system.L1Cache_Controller.M_I.WB_Ack |      950664     24.84%     24.84% |      978410     25.56%     50.40% |      949646     24.81%     75.21% |      948882     24.79%    100.00% (Unspecified)
board.cache_hierarchy.ruby_system.L1Cache_Controller.M_I.WB_Ack::total      3827602                       (Unspecified)
board.cache_hierarchy.ruby_system.L1Cache_Controller.SINK_WB_ACK.WB_Ack |           1    100.00%    100.00% |           0      0.00%    100.00% |           0      0.00%    100.00% |           0      0.00%    100.00% (Unspecified)
board.cache_hierarchy.ruby_system.L1Cache_Controller.SINK_WB_ACK.WB_Ack::total            1                       (Unspecified)
board.cache_hierarchy.ruby_system.L1Cache_Controller.S_IL0.Store |           0      0.00%      0.00% |           1     14.29%     14.29% |           1     14.29%     28.57% |           5     71.43%    100.00% (Unspecified)
board.cache_hierarchy.ruby_system.L1Cache_Controller.S_IL0.Store::total            7                       (Unspecified)
board.cache_hierarchy.ruby_system.L1Cache_Controller.S_IL0.L0_Invalidate_Own |      368832     25.07%     25.07% |      366661     24.92%     49.98% |      368627     25.05%     75.04% |      367317     24.96%    100.00% (Unspecified)
board.cache_hierarchy.ruby_system.L1Cache_Controller.S_IL0.L0_Invalidate_Own::total      1471437                       (Unspecified)
board.cache_hierarchy.ruby_system.L1Cache_Controller.S_IL0.L0_Invalidate_Else |        5936     26.71%     26.71% |        4870     21.91%     48.62% |        5871     26.42%     75.04% |        5547     24.96%    100.00% (Unspecified)
board.cache_hierarchy.ruby_system.L1Cache_Controller.S_IL0.L0_Invalidate_Else::total        22224                       (Unspecified)
board.cache_hierarchy.ruby_system.L1Cache_Controller.S_IL0.L0_Ack |      374768     25.09%     25.09% |      371531     24.87%     49.96% |      374498     25.07%     75.04% |      372864     24.96%    100.00% (Unspecified)
board.cache_hierarchy.ruby_system.L1Cache_Controller.S_IL0.L0_Ack::total      1493661                       (Unspecified)
board.cache_hierarchy.ruby_system.L1Cache_Controller.E_IL0.WriteBack |           0      0.00%      0.00% |           0      0.00%      0.00% |           0      0.00%      0.00% |           1    100.00%    100.00% (Unspecified)
board.cache_hierarchy.ruby_system.L1Cache_Controller.E_IL0.WriteBack::total            1                       (Unspecified)
board.cache_hierarchy.ruby_system.L1Cache_Controller.E_IL0.L0_DataAck |         597     24.68%     24.68% |         625     25.84%     50.52% |         523     21.62%     72.14% |         674     27.86%    100.00% (Unspecified)
board.cache_hierarchy.ruby_system.L1Cache_Controller.E_IL0.L0_DataAck::total         2419                       (Unspecified)
board.cache_hierarchy.ruby_system.L1Cache_Controller.E_IL0.L0_Invalidate_Own |        5276     91.76%     91.76% |         372      6.47%     98.23% |          75      1.30%     99.53% |          27      0.47%    100.00% (Unspecified)
board.cache_hierarchy.ruby_system.L1Cache_Controller.E_IL0.L0_Invalidate_Own::total         5750                       (Unspecified)
board.cache_hierarchy.ruby_system.L1Cache_Controller.E_IL0.L0_Invalidate_Else |        3472     27.24%     27.24% |        3029     23.77%     51.01% |        3259     25.57%     76.58% |        2985     23.42%    100.00% (Unspecified)
board.cache_hierarchy.ruby_system.L1Cache_Controller.E_IL0.L0_Invalidate_Else::total        12745                       (Unspecified)
board.cache_hierarchy.ruby_system.L1Cache_Controller.E_IL0.L0_Ack |        8151     50.71%     50.71% |        2776     17.27%     67.98% |        2811     17.49%     85.46% |        2337     14.54%    100.00% (Unspecified)
board.cache_hierarchy.ruby_system.L1Cache_Controller.E_IL0.L0_Ack::total        16075                       (Unspecified)
board.cache_hierarchy.ruby_system.L1Cache_Controller.M_IL0.WriteBack |           1    100.00%    100.00% |           0      0.00%    100.00% |           0      0.00%    100.00% |           0      0.00%    100.00% (Unspecified)
board.cache_hierarchy.ruby_system.L1Cache_Controller.M_IL0.WriteBack::total            1                       (Unspecified)
board.cache_hierarchy.ruby_system.L1Cache_Controller.M_IL0.L0_DataAck |        1366     25.57%     25.57% |        1869     34.99%     60.56% |         891     16.68%     77.24% |        1216     22.76%    100.00% (Unspecified)
board.cache_hierarchy.ruby_system.L1Cache_Controller.M_IL0.L0_DataAck::total         5342                       (Unspecified)
board.cache_hierarchy.ruby_system.L1Cache_Controller.M_IL0.L0_Invalidate_Own |         190     98.45%     98.45% |           1      0.52%     98.96% |           1      0.52%     99.48% |           1      0.52%    100.00% (Unspecified)
board.cache_hierarchy.ruby_system.L1Cache_Controller.M_IL0.L0_Invalidate_Own::total          193                       (Unspecified)
board.cache_hierarchy.ruby_system.L1Cache_Controller.M_IL0.L0_Invalidate_Else |        1637     25.20%     25.20% |        2119     32.62%     57.81% |        1221     18.79%     76.60% |        1520     23.40%    100.00% (Unspecified)
board.cache_hierarchy.ruby_system.L1Cache_Controller.M_IL0.L0_Invalidate_Else::total         6497                       (Unspecified)
board.cache_hierarchy.ruby_system.L1Cache_Controller.M_IL0.L0_Ack |         460     34.15%     34.15% |         251     18.63%     52.78% |         331     24.57%     77.36% |         305     22.64%    100.00% (Unspecified)
board.cache_hierarchy.ruby_system.L1Cache_Controller.M_IL0.L0_Ack::total         1347                       (Unspecified)
board.cache_hierarchy.ruby_system.L1Cache_Controller.MM_IL0.Fwd_GETS |           1     50.00%     50.00% |           0      0.00%     50.00% |           0      0.00%     50.00% |           1     50.00%    100.00% (Unspecified)
board.cache_hierarchy.ruby_system.L1Cache_Controller.MM_IL0.Fwd_GETS::total            2                       (Unspecified)
board.cache_hierarchy.ruby_system.L1Cache_Controller.MM_IL0.L0_Ack |           1     50.00%     50.00% |           0      0.00%     50.00% |           0      0.00%     50.00% |           1     50.00%    100.00% (Unspecified)
board.cache_hierarchy.ruby_system.L1Cache_Controller.MM_IL0.L0_Ack::total            2                       (Unspecified)
board.cache_hierarchy.ruby_system.L1Cache_Controller.SM_IL0.L0_Invalidate_Else |           1     16.67%     16.67% |           1     16.67%     33.33% |           2     33.33%     66.67% |           2     33.33%    100.00% (Unspecified)
board.cache_hierarchy.ruby_system.L1Cache_Controller.SM_IL0.L0_Invalidate_Else::total            6                       (Unspecified)
board.cache_hierarchy.ruby_system.L1Cache_Controller.SM_IL0.L0_Ack |           1     16.67%     16.67% |           1     16.67%     33.33% |           2     33.33%     66.67% |           2     33.33%    100.00% (Unspecified)
board.cache_hierarchy.ruby_system.L1Cache_Controller.SM_IL0.L0_Ack::total            6                       (Unspecified)
board.cache_hierarchy.ruby_system.L2Cache_Controller.L1_GETS      5311883      0.00%      0.00% (Unspecified)
board.cache_hierarchy.ruby_system.L2Cache_Controller.L1_GETX       139251      0.00%      0.00% (Unspecified)
board.cache_hierarchy.ruby_system.L2Cache_Controller.L1_UPGRADE        61221      0.00%      0.00% (Unspecified)
board.cache_hierarchy.ruby_system.L2Cache_Controller.L1_PUTX      3827605      0.00%      0.00% (Unspecified)
board.cache_hierarchy.ruby_system.L2Cache_Controller.L2_Replacement       509625      0.00%      0.00% (Unspecified)
board.cache_hierarchy.ruby_system.L2Cache_Controller.L2_Replacement_clean      2426133      0.00%      0.00% (Unspecified)
board.cache_hierarchy.ruby_system.L2Cache_Controller.Mem_Data      3066830      0.00%      0.00% (Unspecified)
board.cache_hierarchy.ruby_system.L2Cache_Controller.Mem_Ack      2935758      0.00%      0.00% (Unspecified)
board.cache_hierarchy.ruby_system.L2Cache_Controller.WB_Data        40331      0.00%      0.00% (Unspecified)
board.cache_hierarchy.ruby_system.L2Cache_Controller.WB_Data_clean        82591      0.00%      0.00% (Unspecified)
board.cache_hierarchy.ruby_system.L2Cache_Controller.Ack       118721      0.00%      0.00% (Unspecified)
board.cache_hierarchy.ruby_system.L2Cache_Controller.Ack_all        60900      0.00%      0.00% (Unspecified)
board.cache_hierarchy.ruby_system.L2Cache_Controller.Unblock       122706      0.00%      0.00% (Unspecified)
board.cache_hierarchy.ruby_system.L2Cache_Controller.Exclusive_Unblock      3967803      0.00%      0.00% (Unspecified)
board.cache_hierarchy.ruby_system.L2Cache_Controller.NP.L1_GETS      3028757      0.00%      0.00% (Unspecified)
board.cache_hierarchy.ruby_system.L2Cache_Controller.NP.L1_GETX        38073      0.00%      0.00% (Unspecified)
board.cache_hierarchy.ruby_system.L2Cache_Controller.SS.L1_GETS      1420265      0.00%      0.00% (Unspecified)
board.cache_hierarchy.ruby_system.L2Cache_Controller.SS.L1_GETX          492      0.00%      0.00% (Unspecified)
board.cache_hierarchy.ruby_system.L2Cache_Controller.SS.L1_UPGRADE        61207      0.00%      0.00% (Unspecified)
board.cache_hierarchy.ruby_system.L2Cache_Controller.SS.L1_PUTX            1      0.00%      0.00% (Unspecified)
board.cache_hierarchy.ruby_system.L2Cache_Controller.SS.L2_Replacement        33537      0.00%      0.00% (Unspecified)
board.cache_hierarchy.ruby_system.L2Cache_Controller.SS.L2_Replacement_clean        27361      0.00%      0.00% (Unspecified)
board.cache_hierarchy.ruby_system.L2Cache_Controller.M.L1_GETS       739033      0.00%      0.00% (Unspecified)
board.cache_hierarchy.ruby_system.L2Cache_Controller.M.L1_GETX        99736      0.00%      0.00% (Unspecified)
board.cache_hierarchy.ruby_system.L2Cache_Controller.M.L2_Replacement       476054      0.00%      0.00% (Unspecified)
board.cache_hierarchy.ruby_system.L2Cache_Controller.M.L2_Replacement_clean      2398588      0.00%      0.00% (Unspecified)
board.cache_hierarchy.ruby_system.L2Cache_Controller.MT.L1_GETS       122706      0.00%      0.00% (Unspecified)
board.cache_hierarchy.ruby_system.L2Cache_Controller.MT.L1_GETX          907      0.00%      0.00% (Unspecified)
board.cache_hierarchy.ruby_system.L2Cache_Controller.MT.L1_PUTX      3827603      0.00%      0.00% (Unspecified)
board.cache_hierarchy.ruby_system.L2Cache_Controller.MT.L2_Replacement           34      0.00%      0.00% (Unspecified)
board.cache_hierarchy.ruby_system.L2Cache_Controller.MT.L2_Replacement_clean          184      0.00%      0.00% (Unspecified)
board.cache_hierarchy.ruby_system.L2Cache_Controller.M_I.L1_GETS            2      0.00%      0.00% (Unspecified)
board.cache_hierarchy.ruby_system.L2Cache_Controller.M_I.Mem_Ack      2935758      0.00%      0.00% (Unspecified)
board.cache_hierarchy.ruby_system.L2Cache_Controller.MT_I.WB_Data           19      0.00%      0.00% (Unspecified)
board.cache_hierarchy.ruby_system.L2Cache_Controller.MT_I.WB_Data_clean           15      0.00%      0.00% (Unspecified)
board.cache_hierarchy.ruby_system.L2Cache_Controller.MCT_I.WB_Data           45      0.00%      0.00% (Unspecified)
board.cache_hierarchy.ruby_system.L2Cache_Controller.MCT_I.WB_Data_clean          137      0.00%      0.00% (Unspecified)
board.cache_hierarchy.ruby_system.L2Cache_Controller.MCT_I.Ack_all            2      0.00%      0.00% (Unspecified)
board.cache_hierarchy.ruby_system.L2Cache_Controller.I_I.Ack        47001      0.00%      0.00% (Unspecified)
board.cache_hierarchy.ruby_system.L2Cache_Controller.I_I.Ack_all        27361      0.00%      0.00% (Unspecified)
board.cache_hierarchy.ruby_system.L2Cache_Controller.S_I.Ack        71720      0.00%      0.00% (Unspecified)
board.cache_hierarchy.ruby_system.L2Cache_Controller.S_I.Ack_all        33537      0.00%      0.00% (Unspecified)
board.cache_hierarchy.ruby_system.L2Cache_Controller.ISS.L1_GETS          402      0.00%      0.00% (Unspecified)
board.cache_hierarchy.ruby_system.L2Cache_Controller.ISS.Mem_Data      3028355      0.00%      0.00% (Unspecified)
board.cache_hierarchy.ruby_system.L2Cache_Controller.IS.L1_GETS          500      0.00%      0.00% (Unspecified)
board.cache_hierarchy.ruby_system.L2Cache_Controller.IS.Mem_Data          402      0.00%      0.00% (Unspecified)
board.cache_hierarchy.ruby_system.L2Cache_Controller.IM.L1_GETX            9      0.00%      0.00% (Unspecified)
board.cache_hierarchy.ruby_system.L2Cache_Controller.IM.Mem_Data        38073      0.00%      0.00% (Unspecified)
board.cache_hierarchy.ruby_system.L2Cache_Controller.SS_MB.L1_GETS           35      0.00%      0.00% (Unspecified)
board.cache_hierarchy.ruby_system.L2Cache_Controller.SS_MB.L1_GETX            9      0.00%      0.00% (Unspecified)
board.cache_hierarchy.ruby_system.L2Cache_Controller.SS_MB.L1_UPGRADE            6      0.00%      0.00% (Unspecified)
board.cache_hierarchy.ruby_system.L2Cache_Controller.SS_MB.Exclusive_Unblock        61699      0.00%      0.00% (Unspecified)
board.cache_hierarchy.ruby_system.L2Cache_Controller.MT_MB.L1_GETS           23      0.00%      0.00% (Unspecified)
board.cache_hierarchy.ruby_system.L2Cache_Controller.MT_MB.L1_GETX           25      0.00%      0.00% (Unspecified)
board.cache_hierarchy.ruby_system.L2Cache_Controller.MT_MB.Exclusive_Unblock      3906104      0.00%      0.00% (Unspecified)
board.cache_hierarchy.ruby_system.L2Cache_Controller.MT_IIB.L1_GETS          155      0.00%      0.00% (Unspecified)
board.cache_hierarchy.ruby_system.L2Cache_Controller.MT_IIB.L1_PUTX            1      0.00%      0.00% (Unspecified)
board.cache_hierarchy.ruby_system.L2Cache_Controller.MT_IIB.WB_Data        40254      0.00%      0.00% (Unspecified)
board.cache_hierarchy.ruby_system.L2Cache_Controller.MT_IIB.WB_Data_clean        82433      0.00%      0.00% (Unspecified)
board.cache_hierarchy.ruby_system.L2Cache_Controller.MT_IIB.Unblock           19      0.00%      0.00% (Unspecified)
board.cache_hierarchy.ruby_system.L2Cache_Controller.MT_IB.WB_Data           13      0.00%      0.00% (Unspecified)
board.cache_hierarchy.ruby_system.L2Cache_Controller.MT_IB.WB_Data_clean            6      0.00%      0.00% (Unspecified)
board.cache_hierarchy.ruby_system.L2Cache_Controller.MT_SB.L1_GETS            5      0.00%      0.00% (Unspecified)
board.cache_hierarchy.ruby_system.L2Cache_Controller.MT_SB.L1_UPGRADE            8      0.00%      0.00% (Unspecified)
board.cache_hierarchy.ruby_system.L2Cache_Controller.MT_SB.Unblock       122687      0.00%      0.00% (Unspecified)
board.cache_hierarchy.ruby_system.RequestType.LD.latency_hist_seqr::bucket_size          256                       (Unspecified)
board.cache_hierarchy.ruby_system.RequestType.LD.latency_hist_seqr::max_bucket         2559                       (Unspecified)
board.cache_hierarchy.ruby_system.RequestType.LD.latency_hist_seqr::samples     67931729                       (Unspecified)
board.cache_hierarchy.ruby_system.RequestType.LD.latency_hist_seqr::mean    10.364564                       (Unspecified)
board.cache_hierarchy.ruby_system.RequestType.LD.latency_hist_seqr::gmean     1.428399                       (Unspecified)
board.cache_hierarchy.ruby_system.RequestType.LD.latency_hist_seqr::stdev    48.919344                       (Unspecified)
board.cache_hierarchy.ruby_system.RequestType.LD.latency_hist_seqr |    67794088     99.80%     99.80% |       71318      0.10%     99.90% |       15096      0.02%     99.92% |       16288      0.02%     99.95% |       32322      0.05%    100.00% |        2281      0.00%    100.00% |         319      0.00%    100.00% |          17      0.00%    100.00% |           0      0.00%    100.00% |           0      0.00%    100.00% (Unspecified)
board.cache_hierarchy.ruby_system.RequestType.LD.latency_hist_seqr::total     67931729                       (Unspecified)
board.cache_hierarchy.ruby_system.RequestType.LD.hit_latency_hist_seqr::bucket_size            1                       (Unspecified)
board.cache_hierarchy.ruby_system.RequestType.LD.hit_latency_hist_seqr::max_bucket            9                       (Unspecified)
board.cache_hierarchy.ruby_system.RequestType.LD.hit_latency_hist_seqr::samples     61451476                       (Unspecified)
board.cache_hierarchy.ruby_system.RequestType.LD.hit_latency_hist_seqr::mean            1                       (Unspecified)
board.cache_hierarchy.ruby_system.RequestType.LD.hit_latency_hist_seqr::gmean            1                       (Unspecified)
board.cache_hierarchy.ruby_system.RequestType.LD.hit_latency_hist_seqr |           0      0.00%      0.00% |    61451476    100.00%    100.00% |           0      0.00%    100.00% |           0      0.00%    100.00% |           0      0.00%    100.00% |           0      0.00%    100.00% |           0      0.00%    100.00% |           0      0.00%    100.00% |           0      0.00%    100.00% |           0      0.00%    100.00% (Unspecified)
board.cache_hierarchy.ruby_system.RequestType.LD.hit_latency_hist_seqr::total     61451476                       (Unspecified)
board.cache_hierarchy.ruby_system.RequestType.LD.miss_latency_hist_seqr::bucket_size          256                       (Unspecified)
board.cache_hierarchy.ruby_system.RequestType.LD.miss_latency_hist_seqr::max_bucket         2559                       (Unspecified)
board.cache_hierarchy.ruby_system.RequestType.LD.miss_latency_hist_seqr::samples      6480253                       (Unspecified)
board.cache_hierarchy.ruby_system.RequestType.LD.miss_latency_hist_seqr::mean    99.167625                       (Unspecified)
board.cache_hierarchy.ruby_system.RequestType.LD.miss_latency_hist_seqr::gmean    42.002101                       (Unspecified)
board.cache_hierarchy.ruby_system.RequestType.LD.miss_latency_hist_seqr::stdev   127.941492                       (Unspecified)
board.cache_hierarchy.ruby_system.RequestType.LD.miss_latency_hist_seqr |     6342612     97.88%     97.88% |       71318      1.10%     98.98% |       15096      0.23%     99.21% |       16288      0.25%     99.46% |       32322      0.50%     99.96% |        2281      0.04%     99.99% |         319      0.00%    100.00% |          17      0.00%    100.00% |           0      0.00%    100.00% |           0      0.00%    100.00% (Unspecified)
board.cache_hierarchy.ruby_system.RequestType.LD.miss_latency_hist_seqr::total      6480253                       (Unspecified)
board.cache_hierarchy.ruby_system.RequestType.ST.latency_hist_seqr::bucket_size          256                       (Unspecified)
board.cache_hierarchy.ruby_system.RequestType.ST.latency_hist_seqr::max_bucket         2559                       (Unspecified)
board.cache_hierarchy.ruby_system.RequestType.ST.latency_hist_seqr::samples      3463818                       (Unspecified)
board.cache_hierarchy.ruby_system.RequestType.ST.latency_hist_seqr::mean     3.423156                       (Unspecified)
board.cache_hierarchy.ruby_system.RequestType.ST.latency_hist_seqr::gmean     1.169227                       (Unspecified)
board.cache_hierarchy.ruby_system.RequestType.ST.latency_hist_seqr::stdev    20.157851                       (Unspecified)
board.cache_hierarchy.ruby_system.RequestType.ST.latency_hist_seqr |     3463360     99.99%     99.99% |          46      0.00%     99.99% |          12      0.00%     99.99% |          13      0.00%     99.99% |         385      0.01%    100.00% |           1      0.00%    100.00% |           1      0.00%    100.00% |           0      0.00%    100.00% |           0      0.00%    100.00% |           0      0.00%    100.00% (Unspecified)
board.cache_hierarchy.ruby_system.RequestType.ST.latency_hist_seqr::total      3463818                       (Unspecified)
board.cache_hierarchy.ruby_system.RequestType.ST.hit_latency_hist_seqr::bucket_size            1                       (Unspecified)
board.cache_hierarchy.ruby_system.RequestType.ST.hit_latency_hist_seqr::max_bucket            9                       (Unspecified)
board.cache_hierarchy.ruby_system.RequestType.ST.hit_latency_hist_seqr::samples      3311075                       (Unspecified)
board.cache_hierarchy.ruby_system.RequestType.ST.hit_latency_hist_seqr::mean            1                       (Unspecified)
board.cache_hierarchy.ruby_system.RequestType.ST.hit_latency_hist_seqr::gmean            1                       (Unspecified)
board.cache_hierarchy.ruby_system.RequestType.ST.hit_latency_hist_seqr |           0      0.00%      0.00% |     3311075    100.00%    100.00% |           0      0.00%    100.00% |           0      0.00%    100.00% |           0      0.00%    100.00% |           0      0.00%    100.00% |           0      0.00%    100.00% |           0      0.00%    100.00% |           0      0.00%    100.00% |           0      0.00%    100.00% (Unspecified)
board.cache_hierarchy.ruby_system.RequestType.ST.hit_latency_hist_seqr::total      3311075                       (Unspecified)
board.cache_hierarchy.ruby_system.RequestType.ST.miss_latency_hist_seqr::bucket_size          256                       (Unspecified)
board.cache_hierarchy.ruby_system.RequestType.ST.miss_latency_hist_seqr::max_bucket         2559                       (Unspecified)
board.cache_hierarchy.ruby_system.RequestType.ST.miss_latency_hist_seqr::samples       152743                       (Unspecified)
board.cache_hierarchy.ruby_system.RequestType.ST.miss_latency_hist_seqr::mean    55.950931                       (Unspecified)
board.cache_hierarchy.ruby_system.RequestType.ST.miss_latency_hist_seqr::gmean    34.655543                       (Unspecified)
board.cache_hierarchy.ruby_system.RequestType.ST.miss_latency_hist_seqr::stdev    79.550674                       (Unspecified)
board.cache_hierarchy.ruby_system.RequestType.ST.miss_latency_hist_seqr |      152285     99.70%     99.70% |          46      0.03%     99.73% |          12      0.01%     99.74% |          13      0.01%     99.75% |         385      0.25%    100.00% |           1      0.00%    100.00% |           1      0.00%    100.00% |           0      0.00%    100.00% |           0      0.00%    100.00% |           0      0.00%    100.00% (Unspecified)
board.cache_hierarchy.ruby_system.RequestType.ST.miss_latency_hist_seqr::total       152743                       (Unspecified)
board.cache_hierarchy.ruby_system.RequestType.IFETCH.latency_hist_seqr::bucket_size          256                       (Unspecified)
board.cache_hierarchy.ruby_system.RequestType.IFETCH.latency_hist_seqr::max_bucket         2559                       (Unspecified)
board.cache_hierarchy.ruby_system.RequestType.IFETCH.latency_hist_seqr::samples    306600457                       (Unspecified)
board.cache_hierarchy.ruby_system.RequestType.IFETCH.latency_hist_seqr::mean     1.007344                       (Unspecified)
board.cache_hierarchy.ruby_system.RequestType.IFETCH.latency_hist_seqr::gmean     1.000927                       (Unspecified)
board.cache_hierarchy.ruby_system.RequestType.IFETCH.latency_hist_seqr::stdev     0.803659                       (Unspecified)
board.cache_hierarchy.ruby_system.RequestType.IFETCH.latency_hist_seqr |   306600348    100.00%    100.00% |          60      0.00%    100.00% |           5      0.00%    100.00% |           1      0.00%    100.00% |          42      0.00%    100.00% |           1      0.00%    100.00% |           0      0.00%    100.00% |           0      0.00%    100.00% |           0      0.00%    100.00% |           0      0.00%    100.00% (Unspecified)
board.cache_hierarchy.ruby_system.RequestType.IFETCH.latency_hist_seqr::total    306600457                       (Unspecified)
board.cache_hierarchy.ruby_system.RequestType.IFETCH.hit_latency_hist_seqr::bucket_size            1                       (Unspecified)
board.cache_hierarchy.ruby_system.RequestType.IFETCH.hit_latency_hist_seqr::max_bucket            9                       (Unspecified)
board.cache_hierarchy.ruby_system.RequestType.IFETCH.hit_latency_hist_seqr::samples    306505627                       (Unspecified)
board.cache_hierarchy.ruby_system.RequestType.IFETCH.hit_latency_hist_seqr::mean            1                       (Unspecified)
board.cache_hierarchy.ruby_system.RequestType.IFETCH.hit_latency_hist_seqr::gmean            1                       (Unspecified)
board.cache_hierarchy.ruby_system.RequestType.IFETCH.hit_latency_hist_seqr |           0      0.00%      0.00% |   306505627    100.00%    100.00% |           0      0.00%    100.00% |           0      0.00%    100.00% |           0      0.00%    100.00% |           0      0.00%    100.00% |           0      0.00%    100.00% |           0      0.00%    100.00% |           0      0.00%    100.00% |           0      0.00%    100.00% (Unspecified)
board.cache_hierarchy.ruby_system.RequestType.IFETCH.hit_latency_hist_seqr::total    306505627                       (Unspecified)
board.cache_hierarchy.ruby_system.RequestType.IFETCH.miss_latency_hist_seqr::bucket_size          256                       (Unspecified)
board.cache_hierarchy.ruby_system.RequestType.IFETCH.miss_latency_hist_seqr::max_bucket         2559                       (Unspecified)
board.cache_hierarchy.ruby_system.RequestType.IFETCH.miss_latency_hist_seqr::samples        94830                       (Unspecified)
board.cache_hierarchy.ruby_system.RequestType.IFETCH.miss_latency_hist_seqr::mean    24.743246                       (Unspecified)
board.cache_hierarchy.ruby_system.RequestType.IFETCH.miss_latency_hist_seqr::gmean    19.981434                       (Unspecified)
board.cache_hierarchy.ruby_system.RequestType.IFETCH.miss_latency_hist_seqr::stdev    39.046663                       (Unspecified)
board.cache_hierarchy.ruby_system.RequestType.IFETCH.miss_latency_hist_seqr |       94721     99.89%     99.89% |          60      0.06%     99.95% |           5      0.01%     99.95% |           1      0.00%     99.95% |          42      0.04%    100.00% |           1      0.00%    100.00% |           0      0.00%    100.00% |           0      0.00%    100.00% |           0      0.00%    100.00% |           0      0.00%    100.00% (Unspecified)
board.cache_hierarchy.ruby_system.RequestType.IFETCH.miss_latency_hist_seqr::total        94830                       (Unspecified)
board.cache_hierarchy.ruby_system.RequestType.RMW_Read.latency_hist_seqr::bucket_size          128                       (Unspecified)
board.cache_hierarchy.ruby_system.RequestType.RMW_Read.latency_hist_seqr::max_bucket         1279                       (Unspecified)
board.cache_hierarchy.ruby_system.RequestType.RMW_Read.latency_hist_seqr::samples        20860                       (Unspecified)
board.cache_hierarchy.ruby_system.RequestType.RMW_Read.latency_hist_seqr::mean     7.318600                       (Unspecified)
board.cache_hierarchy.ruby_system.RequestType.RMW_Read.latency_hist_seqr::gmean     2.322296                       (Unspecified)
board.cache_hierarchy.ruby_system.RequestType.RMW_Read.latency_hist_seqr::stdev    20.833056                       (Unspecified)
board.cache_hierarchy.ruby_system.RequestType.RMW_Read.latency_hist_seqr |       20742     99.43%     99.43% |         102      0.49%     99.92% |           5      0.02%     99.95% |           7      0.03%     99.98% |           2      0.01%     99.99% |           2      0.01%    100.00% |           0      0.00%    100.00% |           0      0.00%    100.00% |           0      0.00%    100.00% |           0      0.00%    100.00% (Unspecified)
board.cache_hierarchy.ruby_system.RequestType.RMW_Read.latency_hist_seqr::total        20860                       (Unspecified)
board.cache_hierarchy.ruby_system.RequestType.RMW_Read.hit_latency_hist_seqr::bucket_size            1                       (Unspecified)
board.cache_hierarchy.ruby_system.RequestType.RMW_Read.hit_latency_hist_seqr::max_bucket            9                       (Unspecified)
board.cache_hierarchy.ruby_system.RequestType.RMW_Read.hit_latency_hist_seqr::samples        14927                       (Unspecified)
board.cache_hierarchy.ruby_system.RequestType.RMW_Read.hit_latency_hist_seqr::mean            1                       (Unspecified)
board.cache_hierarchy.ruby_system.RequestType.RMW_Read.hit_latency_hist_seqr::gmean            1                       (Unspecified)
board.cache_hierarchy.ruby_system.RequestType.RMW_Read.hit_latency_hist_seqr |           0      0.00%      0.00% |       14927    100.00%    100.00% |           0      0.00%    100.00% |           0      0.00%    100.00% |           0      0.00%    100.00% |           0      0.00%    100.00% |           0      0.00%    100.00% |           0      0.00%    100.00% |           0      0.00%    100.00% |           0      0.00%    100.00% (Unspecified)
board.cache_hierarchy.ruby_system.RequestType.RMW_Read.hit_latency_hist_seqr::total        14927                       (Unspecified)
board.cache_hierarchy.ruby_system.RequestType.RMW_Read.miss_latency_hist_seqr::bucket_size          128                       (Unspecified)
board.cache_hierarchy.ruby_system.RequestType.RMW_Read.miss_latency_hist_seqr::max_bucket         1279                       (Unspecified)
board.cache_hierarchy.ruby_system.RequestType.RMW_Read.miss_latency_hist_seqr::samples         5933                       (Unspecified)
board.cache_hierarchy.ruby_system.RequestType.RMW_Read.miss_latency_hist_seqr::mean    23.215742                       (Unspecified)
board.cache_hierarchy.ruby_system.RequestType.RMW_Read.miss_latency_hist_seqr::gmean    19.343716                       (Unspecified)
board.cache_hierarchy.ruby_system.RequestType.RMW_Read.miss_latency_hist_seqr::stdev    34.248029                       (Unspecified)
board.cache_hierarchy.ruby_system.RequestType.RMW_Read.miss_latency_hist_seqr |        5815     98.01%     98.01% |         102      1.72%     99.73% |           5      0.08%     99.81% |           7      0.12%     99.93% |           2      0.03%     99.97% |           2      0.03%    100.00% |           0      0.00%    100.00% |           0      0.00%    100.00% |           0      0.00%    100.00% |           0      0.00%    100.00% (Unspecified)
board.cache_hierarchy.ruby_system.RequestType.RMW_Read.miss_latency_hist_seqr::total         5933                       (Unspecified)
board.cache_hierarchy.ruby_system.RequestType.Locked_RMW_Read.latency_hist_seqr::bucket_size          128                       (Unspecified)
board.cache_hierarchy.ruby_system.RequestType.Locked_RMW_Read.latency_hist_seqr::max_bucket         1279                       (Unspecified)
board.cache_hierarchy.ruby_system.RequestType.Locked_RMW_Read.latency_hist_seqr::samples      1251295                       (Unspecified)
board.cache_hierarchy.ruby_system.RequestType.Locked_RMW_Read.latency_hist_seqr::mean     1.772098                       (Unspecified)
board.cache_hierarchy.ruby_system.RequestType.Locked_RMW_Read.latency_hist_seqr::gmean     1.113397                       (Unspecified)
board.cache_hierarchy.ruby_system.RequestType.Locked_RMW_Read.latency_hist_seqr::stdev     4.440542                       (Unspecified)
board.cache_hierarchy.ruby_system.RequestType.Locked_RMW_Read.latency_hist_seqr |     1251223     99.99%     99.99% |          68      0.01%    100.00% |           1      0.00%    100.00% |           1      0.00%    100.00% |           1      0.00%    100.00% |           0      0.00%    100.00% |           0      0.00%    100.00% |           1      0.00%    100.00% |           0      0.00%    100.00% |           0      0.00%    100.00% (Unspecified)
board.cache_hierarchy.ruby_system.RequestType.Locked_RMW_Read.latency_hist_seqr::total      1251295                       (Unspecified)
board.cache_hierarchy.ruby_system.RequestType.Locked_RMW_Read.hit_latency_hist_seqr::bucket_size            1                       (Unspecified)
board.cache_hierarchy.ruby_system.RequestType.Locked_RMW_Read.hit_latency_hist_seqr::max_bucket            9                       (Unspecified)
board.cache_hierarchy.ruby_system.RequestType.Locked_RMW_Read.hit_latency_hist_seqr::samples      1208602                       (Unspecified)
board.cache_hierarchy.ruby_system.RequestType.Locked_RMW_Read.hit_latency_hist_seqr::mean            1                       (Unspecified)
board.cache_hierarchy.ruby_system.RequestType.Locked_RMW_Read.hit_latency_hist_seqr::gmean            1                       (Unspecified)
[...]
board.processor.switch3.core.commitStats0.committedInstType::IntDiv         7136      0.01%     82.42% # Class of committed instruction. (Count)
board.processor.switch3.core.commitStats0.committedInstType::FloatAdd           16      0.00%     82.42% # Class of committed instruction. (Count)
board.processor.switch3.core.commitStats0.committedInstType::FloatCmp            0      0.00%     82.42% # Class of committed instruction. (Count)
board.processor.switch3.core.commitStats0.committedInstType::FloatCvt           32      0.00%     82.42% # Class of committed instruction. (Count)
board.processor.switch3.core.commitStats0.committedInstType::FloatMult            0      0.00%     82.42% # Class of committed instruction. (Count)
board.processor.switch3.core.commitStats0.committedInstType::FloatMultAcc            0      0.00%     82.42% # Class of committed instruction. (Count)
board.processor.switch3.core.commitStats0.committedInstType::FloatDiv            0      0.00%     82.42% # Class of committed instruction. (Count)
board.processor.switch3.core.commitStats0.committedInstType::FloatMisc            0      0.00%     82.42% # Class of committed instruction. (Count)
board.processor.switch3.core.commitStats0.committedInstType::FloatSqrt            0      0.00%     82.42% # Class of committed instruction. (Count)
board.processor.switch3.core.commitStats0.committedInstType::SimdAdd       203592      0.21%     82.63% # Class of committed instruction. (Count)
board.processor.switch3.core.commitStats0.committedInstType::SimdAddAcc            0      0.00%     82.63% # Class of committed instruction. (Count)
board.processor.switch3.core.commitStats0.committedInstType::SimdAlu           28      0.00%     82.63% # Class of committed instruction. (Count)
board.processor.switch3.core.commitStats0.committedInstType::SimdCmp            0      0.00%     82.63% # Class of committed instruction. (Count)
board.processor.switch3.core.commitStats0.committedInstType::SimdCvt           36      0.00%     82.63% # Class of committed instruction. (Count)
board.processor.switch3.core.commitStats0.committedInstType::SimdMisc           20      0.00%     82.63% # Class of committed instruction. (Count)
board.processor.switch3.core.commitStats0.committedInstType::SimdMult            0      0.00%     82.63% # Class of committed instruction. (Count)
board.processor.switch3.core.commitStats0.committedInstType::SimdMultAcc            0      0.00%     82.63% # Class of committed instruction. (Count)
board.processor.switch3.core.commitStats0.committedInstType::SimdMatMultAcc            0      0.00%     82.63% # Class of committed instruction. (Count)
board.processor.switch3.core.commitStats0.committedInstType::SimdShift           18      0.00%     82.63% # Class of committed instruction. (Count)
board.processor.switch3.core.commitStats0.committedInstType::SimdShiftAcc            0      0.00%     82.63% # Class of committed instruction. (Count)
board.processor.switch3.core.commitStats0.committedInstType::SimdDiv            0      0.00%     82.63% # Class of committed instruction. (Count)
board.processor.switch3.core.commitStats0.committedInstType::SimdSqrt            0      0.00%     82.63% # Class of committed instruction. (Count)
board.processor.switch3.core.commitStats0.committedInstType::SimdFloatAdd            0      0.00%     82.63% # Class of committed instruction. (Count)
board.processor.switch3.core.commitStats0.committedInstType::SimdFloatAlu            0      0.00%     82.63% # Class of committed instruction. (Count)
board.processor.switch3.core.commitStats0.committedInstType::SimdFloatCmp            0      0.00%     82.63% # Class of committed instruction. (Count)
board.processor.switch3.core.commitStats0.committedInstType::SimdFloatCvt            0      0.00%     82.63% # Class of committed instruction. (Count)
board.processor.switch3.core.commitStats0.committedInstType::SimdFloatDiv            0      0.00%     82.63% # Class of committed instruction. (Count)
board.processor.switch3.core.commitStats0.committedInstType::SimdFloatMisc            0      0.00%     82.63% # Class of committed instruction. (Count)
board.processor.switch3.core.commitStats0.committedInstType::SimdFloatMult            0      0.00%     82.63% # Class of committed instruction. (Count)
board.processor.switch3.core.commitStats0.committedInstType::SimdFloatMultAcc            0      0.00%     82.63% # Class of committed instruction. (Count)
board.processor.switch3.core.commitStats0.committedInstType::SimdFloatMatMultAcc            0      0.00%     82.63% # Class of committed instruction. (Count)
board.processor.switch3.core.commitStats0.committedInstType::SimdFloatSqrt            0      0.00%     82.63% # Class of committed instruction. (Count)
board.processor.switch3.core.commitStats0.committedInstType::SimdReduceAdd            0      0.00%     82.63% # Class of committed instruction. (Count)
board.processor.switch3.core.commitStats0.committedInstType::SimdReduceAlu            0      0.00%     82.63% # Class of committed instruction. (Count)
board.processor.switch3.core.commitStats0.committedInstType::SimdReduceCmp            0      0.00%     82.63% # Class of committed instruction. (Count)
board.processor.switch3.core.commitStats0.committedInstType::SimdFloatReduceAdd            0      0.00%     82.63% # Class of committed instruction. (Count)
board.processor.switch3.core.commitStats0.committedInstType::SimdFloatReduceCmp            0      0.00%     82.63% # Class of committed instruction. (Count)
board.processor.switch3.core.commitStats0.committedInstType::SimdAes            0      0.00%     82.63% # Class of committed instruction. (Count)
board.processor.switch3.core.commitStats0.committedInstType::SimdAesMix            0      0.00%     82.63% # Class of committed instruction. (Count)
board.processor.switch3.core.commitStats0.committedInstType::SimdSha1Hash            0      0.00%     82.63% # Class of committed instruction. (Count)
board.processor.switch3.core.commitStats0.committedInstType::SimdSha1Hash2            0      0.00%     82.63% # Class of committed instruction. (Count)
board.processor.switch3.core.commitStats0.committedInstType::SimdSha256Hash            0      0.00%     82.63% # Class of committed instruction. (Count)
board.processor.switch3.core.commitStats0.committedInstType::SimdSha256Hash2            0      0.00%     82.63% # Class of committed instruction. (Count)
board.processor.switch3.core.commitStats0.committedInstType::SimdShaSigma2            0      0.00%     82.63% # Class of committed instruction. (Count)
board.processor.switch3.core.commitStats0.committedInstType::SimdShaSigma3            0      0.00%     82.63% # Class of committed instruction. (Count)
board.processor.switch3.core.commitStats0.committedInstType::SimdPredAlu            0      0.00%     82.63% # Class of committed instruction. (Count)
board.processor.switch3.core.commitStats0.committedInstType::Matrix            0      0.00%     82.63% # Class of committed instruction. (Count)
board.processor.switch3.core.commitStats0.committedInstType::MatrixMov            0      0.00%     82.63% # Class of committed instruction. (Count)
board.processor.switch3.core.commitStats0.committedInstType::MatrixOP            0      0.00%     82.63% # Class of committed instruction. (Count)
board.processor.switch3.core.commitStats0.committedInstType::MemRead     15884984     16.23%     98.86% # Class of committed instruction. (Count)
board.processor.switch3.core.commitStats0.committedInstType::MemWrite       907978      0.93%     99.79% # Class of committed instruction. (Count)
board.processor.switch3.core.commitStats0.committedInstType::FloatMemRead           79      0.00%     99.79% # Class of committed instruction. (Count)
board.processor.switch3.core.commitStats0.committedInstType::FloatMemWrite       203640      0.21%    100.00% # Class of committed instruction. (Count)
board.processor.switch3.core.commitStats0.committedInstType::IprAccess            0      0.00%    100.00% # Class of committed instruction. (Count)
board.processor.switch3.core.commitStats0.committedInstType::InstPrefetch            0      0.00%    100.00% # Class of committed instruction. (Count)
board.processor.switch3.core.commitStats0.committedInstType::SimdUnitStrideLoad            0      0.00%    100.00% # Class of committed instruction. (Count)
board.processor.switch3.core.commitStats0.committedInstType::SimdUnitStrideStore            0      0.00%    100.00% # Class of committed instruction. (Count)
board.processor.switch3.core.commitStats0.committedInstType::SimdUnitStrideMaskLoad            0      0.00%    100.00% # Class of committed instruction. (Count)
board.processor.switch3.core.commitStats0.committedInstType::SimdUnitStrideMaskStore            0      0.00%    100.00% # Class of committed instruction. (Count)
board.processor.switch3.core.commitStats0.committedInstType::SimdStridedLoad            0      0.00%    100.00% # Class of committed instruction. (Count)
board.processor.switch3.core.commitStats0.committedInstType::SimdStridedStore            0      0.00%    100.00% # Class of committed instruction. (Count)
board.processor.switch3.core.commitStats0.committedInstType::SimdIndexedLoad            0      0.00%    100.00% # Class of committed instruction. (Count)
board.processor.switch3.core.commitStats0.committedInstType::SimdIndexedStore            0      0.00%    100.00% # Class of committed instruction. (Count)
board.processor.switch3.core.commitStats0.committedInstType::SimdWholeRegisterLoad            0      0.00%    100.00% # Class of committed instruction. (Count)
board.processor.switch3.core.commitStats0.committedInstType::SimdWholeRegisterStore            0      0.00%    100.00% # Class of committed instruction. (Count)
board.processor.switch3.core.commitStats0.committedInstType::SimdUnitStrideFaultOnlyFirstLoad            0      0.00%    100.00% # Class of committed instruction. (Count)
board.processor.switch3.core.commitStats0.committedInstType::SimdUnitStrideSegmentedLoad            0      0.00%    100.00% # Class of committed instruction. (Count)
board.processor.switch3.core.commitStats0.committedInstType::SimdUnitStrideSegmentedStore            0      0.00%    100.00% # Class of committed instruction. (Count)
board.processor.switch3.core.commitStats0.committedInstType::SimdExt            0      0.00%    100.00% # Class of committed instruction. (Count)
board.processor.switch3.core.commitStats0.committedInstType::SimdFloatExt            0      0.00%    100.00% # Class of committed instruction. (Count)
board.processor.switch3.core.commitStats0.committedInstType::SimdConfig            0      0.00%    100.00% # Class of committed instruction. (Count)
board.processor.switch3.core.commitStats0.committedInstType::total     97862667                       # Class of committed instruction. (Count)
board.processor.switch3.core.commitStats0.committedControl::IsControl     11788080                       # Class of control type instructions committed (Count)
board.processor.switch3.core.commitStats0.committedControl::IsDirectControl     11778335                       # Class of control type instructions committed (Count)
board.processor.switch3.core.commitStats0.committedControl::IsIndirectControl         9498                       # Class of control type instructions committed (Count)
board.processor.switch3.core.commitStats0.committedControl::IsCondControl     10192997                       # Class of control type instructions committed (Count)
board.processor.switch3.core.commitStats0.committedControl::IsUncondControl      1595076                       # Class of control type instructions committed (Count)
board.processor.switch3.core.commitStats0.committedControl::IsCall         9341                       # Class of control type instructions committed (Count)
board.processor.switch3.core.commitStats0.committedControl::IsReturn         9277                       # Class of control type instructions committed (Count)
board.processor.switch3.core.exec_context.thread_0.numMatAluAccesses            0                       # Number of matrix alu accesses (Count)
board.processor.switch3.core.exec_context.thread_0.numCallsReturns        18618                       # Number of times a function call or return occured (Count)
board.processor.switch3.core.exec_context.thread_0.numMatInsts            0                       # Number of matrix instructions (Count)
board.processor.switch3.core.exec_context.thread_0.numIdleCycles 2095702.997061                       # Number of idle cycles (Cycle)
board.processor.switch3.core.exec_context.thread_0.numBusyCycles 352695518.002939                       # Number of busy cycles (Cycle)
board.processor.switch3.core.exec_context.thread_0.notIdleFraction     0.994093                       # Percentage of non-idle cycles (Ratio)
board.processor.switch3.core.exec_context.thread_0.idleFraction     0.005907                       # Percentage of idle cycles (Ratio)
board.processor.switch3.core.executeStats0.numInsts            0                       # Number of executed instructions (Count)
board.processor.switch3.core.executeStats0.numNop            0                       # Number of nop insts executed (Count)
board.processor.switch3.core.executeStats0.numBranches            0                       # Number of branches executed (Count)
board.processor.switch3.core.executeStats0.numLoadInsts            0                       # Number of load instructions executed (Count)
board.processor.switch3.core.executeStats0.numStoreInsts     16996681                       # Number of stores executed (Count)
board.processor.switch3.core.executeStats0.instRate            0                       # Inst execution rate ((Count/Cycle))
board.processor.switch3.core.executeStats0.numFpAluAccesses       407466                       # Number of float alu accesses (Count)
board.processor.switch3.core.executeStats0.numFpRegReads       814682                       # Number of times the floating registers were read (Count)
board.processor.switch3.core.executeStats0.numFpRegWrites       203776                       # Number of times the floating registers were written (Count)
board.processor.switch3.core.executeStats0.numIntAluAccesses     96469563                       # Number of integer alu accesses (Count)
board.processor.switch3.core.executeStats0.numIntRegReads    127020440                       # Number of times the integer registers were read (Count)
board.processor.switch3.core.executeStats0.numIntRegWrites     72132300                       # Number of times the integer registers were written (Count)
board.processor.switch3.core.executeStats0.numMemRefs     16996681                       # Number of memory refs (Count)
board.processor.switch3.core.executeStats0.numMiscRegReads     40576005                       # Number of times the Misc registers were read (Count)
board.processor.switch3.core.executeStats0.numMiscRegWrites         4084                       # Number of times the Misc registers were written (Count)
board.processor.switch3.core.executeStats0.numVecAluAccesses            0                       # Number of vector alu accesses (Count)
board.processor.switch3.core.executeStats0.numDiscardedOps            0                       # Number of ops (including micro ops) which were discarded before commit (Count)
board.processor.switch3.core.fetchStats0.numInsts     62080110                       # Number of instructions fetched (thread level) (Count)
board.processor.switch3.core.fetchStats0.numOps     97862667                       # Number of ops (including micro ops) fetched (thread level) (Count)
board.processor.switch3.core.fetchStats0.fetchRate     0.174976                       # Number of inst fetches per cycle ((Count/Cycle))
board.processor.switch3.core.fetchStats0.numBranches     11788080                       # Number of branches fetched (Count)
board.processor.switch3.core.fetchStats0.branchRate     0.033225                       # Number of branch fetches per cycle (Ratio)
board.processor.switch3.core.fetchStats0.numFetchSuspends            0                       # Number of times Execute suspended instruction fetching (Count)
board.processor.switch3.core.mmu.dtb.rdAccesses     16267437                       # TLB accesses on read requests (Count)
board.processor.switch3.core.mmu.dtb.wrAccesses      1111997                       # TLB accesses on write requests (Count)
board.processor.switch3.core.mmu.dtb.rdMisses       382374                       # TLB misses on read requests (Count)
board.processor.switch3.core.mmu.dtb.wrMisses          380                       # TLB misses on write requests (Count)
board.processor.switch3.core.mmu.dtb.walker.power_state.pwrStateResidencyTicks::UNDEFINED 149245471910558                       # Cumulative time (in ticks) in various power states (Tick)
board.processor.switch3.core.mmu.itb.rdAccesses            0                       # TLB accesses on read requests (Count)
board.processor.switch3.core.mmu.itb.wrAccesses     77580826                       # TLB accesses on write requests (Count)
board.processor.switch3.core.mmu.itb.rdMisses            0                       # TLB misses on read requests (Count)
board.processor.switch3.core.mmu.itb.wrMisses          481                       # TLB misses on write requests (Count)
board.processor.switch3.core.mmu.itb.walker.power_state.pwrStateResidencyTicks::UNDEFINED 149245471910558                       # Cumulative time (in ticks) in various power states (Tick)
board.processor.switch3.core.power_state.numTransitions            2                       # Number of power state transitions (Count)
board.processor.switch3.core.power_state.ticksClkGated::samples            1                       # Distribution of time spent in the clock gated state (Tick)
board.processor.switch3.core.power_state.ticksClkGated::mean    697869100                       # Distribution of time spent in the clock gated state (Tick)
board.processor.switch3.core.power_state.ticksClkGated::1000-5e+10            1    100.00%    100.00% # Distribution of time spent in the clock gated state (Tick)
board.processor.switch3.core.power_state.ticksClkGated::min_value    697869100                       # Distribution of time spent in the clock gated state (Tick)
board.processor.switch3.core.power_state.ticksClkGated::max_value    697869100                       # Distribution of time spent in the clock gated state (Tick)
board.processor.switch3.core.power_state.ticksClkGated::total            1                       # Distribution of time spent in the clock gated state (Tick)
board.processor.switch3.core.power_state.pwrStateResidencyTicks::ON 115628112811                       # Cumulative time (in ticks) in various power states (Tick)
board.processor.switch3.core.power_state.pwrStateResidencyTicks::CLK_GATED    697869100                       # Cumulative time (in ticks) in various power states (Tick)
board.processor.switch3.core.power_state.pwrStateResidencyTicks::OFF 149129145928647                       # Cumulative time (in ticks) in various power states (Tick)
board.processor.switch3.core.thread_0.numInsts            0                       # Number of Instructions committed (Count)
board.processor.switch3.core.thread_0.numOps            0                       # Number of Ops committed (Count)
board.processor.switch3.core.thread_0.numMemRefs            0                       # Number of Memory References (Count)
board.workload.inst.arm                             0                       # number of arm instructions executed (Count)
board.workload.inst.quiesce                         0                       # number of quiesce instructions executed (Count)

---------- End Simulation Statistics   ----------
