Run Command: build/X86_MESI_THREE_LEVEL/gem5.opt configs/numa/x86_fs_first.py --benchmark gapbs-cc-small

---------- Begin Simulation Statistics ----------
simSeconds                                   0.063768                       # Number of seconds simulated (Second)
simTicks                                  63767556613                       # Number of ticks simulated (Tick)
finalTick                                140589124710437                       # Number of ticks from beginning of simulation (restored from checkpoints and never reset) (Tick)
simFreq                                  1000000000000                       # The number of ticks per simulated second ((Tick/Second))
hostSeconds                                    842.56                       # Real time elapsed on the host (Second)
hostTickRate                                 75682697                       # The number of ticks simulated per host second (ticks/s) ((Tick/Second))
hostMemory                                    4460468                       # Number of bytes of host memory used (Byte)
simInsts                                  79347005434                       # Number of instructions simulated (Count)
simOps                                    79495987727                       # Number of ops (including micro ops) simulated (Count)
hostInstRate                                 94173198                       # Simulator instruction rate (inst/s) ((Count/Second))
hostOpRate                                   94350018                       # Simulator op (including micro ops) rate (op/s) ((Count/Second))
board.cache_hierarchy.ruby_system.delayHistogram::bucket_size          256                       # delay histogram for all message (Unspecified)
board.cache_hierarchy.ruby_system.delayHistogram::max_bucket         2559                       # delay histogram for all message (Unspecified)
board.cache_hierarchy.ruby_system.delayHistogram::samples     39044503                       # delay histogram for all message (Unspecified)
board.cache_hierarchy.ruby_system.delayHistogram::mean     0.400851                       # delay histogram for all message (Unspecified)
board.cache_hierarchy.ruby_system.delayHistogram::stdev     2.107941                       # delay histogram for all message (Unspecified)
board.cache_hierarchy.ruby_system.delayHistogram |    39044459    100.00%    100.00% |          21      0.00%    100.00% |           9      0.00%    100.00% |           8      0.00%    100.00% |           2      0.00%    100.00% |           2      0.00%    100.00% |           1      0.00%    100.00% |           1      0.00%    100.00% |           0      0.00%    100.00% |           0      0.00%    100.00% # delay histogram for all message (Unspecified)
board.cache_hierarchy.ruby_system.delayHistogram::total     39044503                       # delay histogram for all message (Unspecified)
board.cache_hierarchy.ruby_system.m_outstandReqHistSeqr::bucket_size            1                       (Unspecified)
board.cache_hierarchy.ruby_system.m_outstandReqHistSeqr::max_bucket            9                       (Unspecified)
board.cache_hierarchy.ruby_system.m_outstandReqHistSeqr::samples    394737370                       (Unspecified)
board.cache_hierarchy.ruby_system.m_outstandReqHistSeqr::mean     1.000000                       (Unspecified)
board.cache_hierarchy.ruby_system.m_outstandReqHistSeqr::gmean     1.000000                       (Unspecified)
board.cache_hierarchy.ruby_system.m_outstandReqHistSeqr::stdev     0.000225                       (Unspecified)
board.cache_hierarchy.ruby_system.m_outstandReqHistSeqr |           0      0.00%      0.00% |   394737350    100.00%    100.00% |          20      0.00%    100.00% |           0      0.00%    100.00% |           0      0.00%    100.00% |           0      0.00%    100.00% |           0      0.00%    100.00% |           0      0.00%    100.00% |           0      0.00%    100.00% |           0      0.00%    100.00% (Unspecified)
board.cache_hierarchy.ruby_system.m_outstandReqHistSeqr::total    394737370                       (Unspecified)
board.cache_hierarchy.ruby_system.m_latencyHistSeqr::bucket_size          256                       (Unspecified)
board.cache_hierarchy.ruby_system.m_latencyHistSeqr::max_bucket         2559                       (Unspecified)
board.cache_hierarchy.ruby_system.m_latencyHistSeqr::samples    394737365                       (Unspecified)
board.cache_hierarchy.ruby_system.m_latencyHistSeqr::mean     2.879014                       (Unspecified)
board.cache_hierarchy.ruby_system.m_latencyHistSeqr::gmean     1.068397                       (Unspecified)
board.cache_hierarchy.ruby_system.m_latencyHistSeqr::stdev    23.112906                       (Unspecified)
board.cache_hierarchy.ruby_system.m_latencyHistSeqr |   394474428     99.93%     99.93% |      188670      0.05%     99.98% |       18026      0.00%     99.99% |       15738      0.00%     99.99% |       33611      0.01%    100.00% |        6270      0.00%    100.00% |         589      0.00%    100.00% |          33      0.00%    100.00% |           0      0.00%    100.00% |           0      0.00%    100.00% (Unspecified)
board.cache_hierarchy.ruby_system.m_latencyHistSeqr::total    394737365                       (Unspecified)
board.cache_hierarchy.ruby_system.m_hitLatencyHistSeqr::bucket_size            1                       (Unspecified)
board.cache_hierarchy.ruby_system.m_hitLatencyHistSeqr::max_bucket            9                       (Unspecified)
board.cache_hierarchy.ruby_system.m_hitLatencyHistSeqr::samples    387855524                       (Unspecified)
board.cache_hierarchy.ruby_system.m_hitLatencyHistSeqr::mean            1                       (Unspecified)
board.cache_hierarchy.ruby_system.m_hitLatencyHistSeqr::gmean            1                       (Unspecified)
board.cache_hierarchy.ruby_system.m_hitLatencyHistSeqr |           0      0.00%      0.00% |   387855524    100.00%    100.00% |           0      0.00%    100.00% |           0      0.00%    100.00% |           0      0.00%    100.00% |           0      0.00%    100.00% |           0      0.00%    100.00% |           0      0.00%    100.00% |           0      0.00%    100.00% |           0      0.00%    100.00% (Unspecified)
board.cache_hierarchy.ruby_system.m_hitLatencyHistSeqr::total    387855524                       (Unspecified)
board.cache_hierarchy.ruby_system.m_missLatencyHistSeqr::bucket_size          256                       (Unspecified)
board.cache_hierarchy.ruby_system.m_missLatencyHistSeqr::max_bucket         2559                       (Unspecified)
board.cache_hierarchy.ruby_system.m_missLatencyHistSeqr::samples      6881841                       (Unspecified)
board.cache_hierarchy.ruby_system.m_missLatencyHistSeqr::mean   108.778883                       (Unspecified)
board.cache_hierarchy.ruby_system.m_missLatencyHistSeqr::gmean    44.471971                       (Unspecified)
board.cache_hierarchy.ruby_system.m_missLatencyHistSeqr::stdev   138.664789                       (Unspecified)
board.cache_hierarchy.ruby_system.m_missLatencyHistSeqr |     6618904     96.18%     96.18% |      188670      2.74%     98.92% |       18026      0.26%     99.18% |       15738      0.23%     99.41% |       33611      0.49%     99.90% |        6270      0.09%     99.99% |         589      0.01%    100.00% |          33      0.00%    100.00% |           0      0.00%    100.00% |           0      0.00%    100.00% (Unspecified)
board.cache_hierarchy.ruby_system.m_missLatencyHistSeqr::total      6881841                       (Unspecified)
board.cache_hierarchy.ruby_system.delayVCHist.vnet_0::bucket_size          256                       # delay histogram for vnet_0 (Unspecified)
board.cache_hierarchy.ruby_system.delayVCHist.vnet_0::max_bucket         2559                       # delay histogram for vnet_0 (Unspecified)
board.cache_hierarchy.ruby_system.delayVCHist.vnet_0::samples     13321414                       # delay histogram for vnet_0 (Unspecified)
board.cache_hierarchy.ruby_system.delayVCHist.vnet_0::mean     0.951794                       # delay histogram for vnet_0 (Unspecified)
board.cache_hierarchy.ruby_system.delayVCHist.vnet_0::stdev     3.376439                       # delay histogram for vnet_0 (Unspecified)
board.cache_hierarchy.ruby_system.delayVCHist.vnet_0 |    13321370    100.00%    100.00% |          21      0.00%    100.00% |           9      0.00%    100.00% |           8      0.00%    100.00% |           2      0.00%    100.00% |           2      0.00%    100.00% |           1      0.00%    100.00% |           1      0.00%    100.00% |           0      0.00%    100.00% |           0      0.00%    100.00% # delay histogram for vnet_0 (Unspecified)
board.cache_hierarchy.ruby_system.delayVCHist.vnet_0::total     13321414                       # delay histogram for vnet_0 (Unspecified)
board.cache_hierarchy.ruby_system.delayVCHist.vnet_1::bucket_size            8                       # delay histogram for vnet_1 (Unspecified)
board.cache_hierarchy.ruby_system.delayVCHist.vnet_1::max_bucket           79                       # delay histogram for vnet_1 (Unspecified)
board.cache_hierarchy.ruby_system.delayVCHist.vnet_1::samples     23101237                       # delay histogram for vnet_1 (Unspecified)
board.cache_hierarchy.ruby_system.delayVCHist.vnet_1::mean     0.112745                       # delay histogram for vnet_1 (Unspecified)
board.cache_hierarchy.ruby_system.delayVCHist.vnet_1::stdev     0.780300                       # delay histogram for vnet_1 (Unspecified)
board.cache_hierarchy.ruby_system.delayVCHist.vnet_1 |    23032125     99.70%     99.70% |       67363      0.29%     99.99% |        1702      0.01%    100.00% |          23      0.00%    100.00% |          13      0.00%    100.00% |           5      0.00%    100.00% |           5      0.00%    100.00% |           1      0.00%    100.00% |           0      0.00%    100.00% |           0      0.00%    100.00% # delay histogram for vnet_1 (Unspecified)
board.cache_hierarchy.ruby_system.delayVCHist.vnet_1::total     23101237                       # delay histogram for vnet_1 (Unspecified)
board.cache_hierarchy.ruby_system.delayVCHist.vnet_2::bucket_size            1                       # delay histogram for vnet_2 (Unspecified)
board.cache_hierarchy.ruby_system.delayVCHist.vnet_2::max_bucket            9                       # delay histogram for vnet_2 (Unspecified)
board.cache_hierarchy.ruby_system.delayVCHist.vnet_2::samples      2621852                       # delay histogram for vnet_2 (Unspecified)
board.cache_hierarchy.ruby_system.delayVCHist.vnet_2::mean     0.140069                       # delay histogram for vnet_2 (Unspecified)
board.cache_hierarchy.ruby_system.delayVCHist.vnet_2::stdev     0.735242                       # delay histogram for vnet_2 (Unspecified)
board.cache_hierarchy.ruby_system.delayVCHist.vnet_2 |     2530002     96.50%     96.50% |           0      0.00%     96.50% |          95      0.00%     96.50% |           0      0.00%     96.50% |       91740      3.50%    100.00% |           0      0.00%    100.00% |          15      0.00%    100.00% |           0      0.00%    100.00% |           0      0.00%    100.00% |           0      0.00%    100.00% # delay histogram for vnet_2 (Unspecified)
board.cache_hierarchy.ruby_system.delayVCHist.vnet_2::total      2621852                       # delay histogram for vnet_2 (Unspecified)
board.cache_hierarchy.ruby_system.Directory_Controller.Fetch |     1551140     49.98%     49.98% |     1552337     50.02%    100.00% (Unspecified)
board.cache_hierarchy.ruby_system.Directory_Controller.Fetch::total      3103477                       (Unspecified)
board.cache_hierarchy.ruby_system.Directory_Controller.Data |      267324     49.95%     49.95% |      267846     50.05%    100.00% (Unspecified)
board.cache_hierarchy.ruby_system.Directory_Controller.Data::total       535170                       (Unspecified)
board.cache_hierarchy.ruby_system.Directory_Controller.Memory_Data |     1551140     49.98%     49.98% |     1552336     50.02%    100.00% (Unspecified)
board.cache_hierarchy.ruby_system.Directory_Controller.Memory_Data::total      3103476                       (Unspecified)
board.cache_hierarchy.ruby_system.Directory_Controller.Memory_Ack |      267324     49.95%     49.95% |      267846     50.05%    100.00% (Unspecified)
board.cache_hierarchy.ruby_system.Directory_Controller.Memory_Ack::total       535170                       (Unspecified)
board.cache_hierarchy.ruby_system.Directory_Controller.CleanReplacement |     1218280     49.99%     49.99% |     1218955     50.01%    100.00% (Unspecified)
board.cache_hierarchy.ruby_system.Directory_Controller.CleanReplacement::total      2437235                       (Unspecified)
board.cache_hierarchy.ruby_system.Directory_Controller.I.Fetch |     1551140     49.98%     49.98% |     1552337     50.02%    100.00% (Unspecified)
board.cache_hierarchy.ruby_system.Directory_Controller.I.Fetch::total      3103477                       (Unspecified)
board.cache_hierarchy.ruby_system.Directory_Controller.M.Data |      267324     49.95%     49.95% |      267846     50.05%    100.00% (Unspecified)
board.cache_hierarchy.ruby_system.Directory_Controller.M.Data::total       535170                       (Unspecified)
board.cache_hierarchy.ruby_system.Directory_Controller.M.CleanReplacement |     1218280     49.99%     49.99% |     1218955     50.01%    100.00% (Unspecified)
board.cache_hierarchy.ruby_system.Directory_Controller.M.CleanReplacement::total      2437235                       (Unspecified)
board.cache_hierarchy.ruby_system.Directory_Controller.IM.Memory_Data |     1551140     49.98%     49.98% |     1552336     50.02%    100.00% (Unspecified)
board.cache_hierarchy.ruby_system.Directory_Controller.IM.Memory_Data::total      3103476                       (Unspecified)
board.cache_hierarchy.ruby_system.Directory_Controller.MI.Memory_Ack |      267324     49.95%     49.95% |      267846     50.05%    100.00% (Unspecified)
board.cache_hierarchy.ruby_system.Directory_Controller.MI.Memory_Ack::total       535170                       (Unspecified)
board.cache_hierarchy.ruby_system.L0Cache_Controller.Load |     8792804     12.67%     12.67% |     8740263     12.59%     25.26% |     8718679     12.56%     37.82% |     8588016     12.37%     50.19% |     8566712     12.34%     62.53% |     8695071     12.53%     75.05% |     8647300     12.46%     87.51% |     8671961     12.49%    100.00% (Unspecified)
board.cache_hierarchy.ruby_system.L0Cache_Controller.Load::total     69420806                       (Unspecified)
board.cache_hierarchy.ruby_system.L0Cache_Controller.Ifetch |    40538219     12.71%     12.71% |    40209824     12.61%     25.32% |    40123400     12.58%     37.91% |    39446027     12.37%     50.28% |    39232043     12.30%     62.58% |    39519185     12.39%     74.98% |    39793370     12.48%     87.46% |    39997202     12.54%    100.00% (Unspecified)
board.cache_hierarchy.ruby_system.L0Cache_Controller.Ifetch::total    318859270                       (Unspecified)
board.cache_hierarchy.ruby_system.L0Cache_Controller.Store |      759299     11.76%     11.76% |      757983     11.74%     23.50% |      770183     11.93%     35.42% |      844653     13.08%     48.51% |      903141     13.99%     62.49% |      773926     11.99%     74.48% |      842153     13.04%     87.52% |      805952     12.48%    100.00% (Unspecified)
board.cache_hierarchy.ruby_system.L0Cache_Controller.Store::total      6457290                       (Unspecified)
board.cache_hierarchy.ruby_system.L0Cache_Controller.InvOwn |      209435     12.63%     12.63% |      208076     12.55%     25.18% |      207715     12.53%     37.71% |      206250     12.44%     50.15% |      205707     12.41%     62.56% |      207959     12.54%     75.11% |      207702     12.53%     87.64% |      204985     12.36%    100.00% (Unspecified)
board.cache_hierarchy.ruby_system.L0Cache_Controller.InvOwn::total      1657829                       (Unspecified)
board.cache_hierarchy.ruby_system.L0Cache_Controller.InvElse |       12097     13.18%     13.18% |       11605     12.65%     25.83% |       11722     12.78%     38.61% |       11121     12.12%     50.73% |       10942     11.93%     62.65% |       11361     12.38%     75.03% |       11528     12.56%     87.60% |       11379     12.40%    100.00% (Unspecified)
board.cache_hierarchy.ruby_system.L0Cache_Controller.InvElse::total        91755                       (Unspecified)
board.cache_hierarchy.ruby_system.L0Cache_Controller.L0_Replacement |      823006     12.44%     12.44% |      825530     12.48%     24.92% |      826202     12.49%     37.40% |      831861     12.57%     49.98% |      831840     12.57%     62.55% |      820228     12.40%     74.94% |      834688     12.62%     87.56% |      823112     12.44%    100.00% (Unspecified)
board.cache_hierarchy.ruby_system.L0Cache_Controller.L0_Replacement::total      6616467                       (Unspecified)
board.cache_hierarchy.ruby_system.L0Cache_Controller.Data |      375690     12.54%     12.54% |      377702     12.60%     25.14% |      377937     12.61%     37.75% |      373579     12.47%     50.21% |      370748     12.37%     62.58% |      373510     12.46%     75.05% |      376164     12.55%     87.60% |      371684     12.40%    100.00% (Unspecified)
board.cache_hierarchy.ruby_system.L0Cache_Controller.Data::total      2997014                       (Unspecified)
board.cache_hierarchy.ruby_system.L0Cache_Controller.Data_Exclusive |      481801     12.40%     12.40% |      480278     12.36%     24.77% |      481991     12.41%     37.17% |      490298     12.62%     49.79% |      494256     12.72%     62.52% |      480375     12.37%     74.88% |      490336     12.62%     87.50% |      485474     12.50%    100.00% (Unspecified)
board.cache_hierarchy.ruby_system.L0Cache_Controller.Data_Exclusive::total      3884809                       (Unspecified)
board.cache_hierarchy.ruby_system.L0Cache_Controller.Data_Stale |           1      5.56%      5.56% |           4     22.22%     27.78% |           4     22.22%     50.00% |           1      5.56%     55.56% |           4     22.22%     77.78% |           4     22.22%    100.00% |           0      0.00%    100.00% |           0      0.00%    100.00% (Unspecified)
board.cache_hierarchy.ruby_system.L0Cache_Controller.Data_Stale::total           18                       (Unspecified)
board.cache_hierarchy.ruby_system.L0Cache_Controller.I.Load |      813845     12.53%     12.53% |      815347     12.55%     25.08% |      814791     12.55%     37.63% |      810702     12.48%     50.11% |      807168     12.43%     62.54% |      811955     12.50%     75.04% |      814046     12.53%     87.57% |      807090     12.43%    100.00% (Unspecified)
board.cache_hierarchy.ruby_system.L0Cache_Controller.I.Load::total      6494944                       (Unspecified)
board.cache_hierarchy.ruby_system.L0Cache_Controller.I.Ifetch |       14038     14.24%     14.24% |       11671     11.84%     26.08% |       11678     11.85%     37.93% |       11603     11.77%     49.70% |       11957     12.13%     61.83% |       14286     14.49%     76.33% |       11727     11.90%     88.23% |       11604     11.77%    100.00% (Unspecified)
board.cache_hierarchy.ruby_system.L0Cache_Controller.I.Ifetch::total        98564                       (Unspecified)
board.cache_hierarchy.ruby_system.L0Cache_Controller.I.Store |       19224      9.63%      9.63% |       19879      9.96%     19.59% |       21537     10.79%     30.38% |       30822     15.44%     45.82% |       34542     17.31%     63.13% |       16919      8.48%     71.61% |       30365     15.21%     86.82% |       26305     13.18%    100.00% (Unspecified)
board.cache_hierarchy.ruby_system.L0Cache_Controller.I.Store::total       199593                       (Unspecified)
board.cache_hierarchy.ruby_system.L0Cache_Controller.I.InvOwn |      191830     12.53%     12.53% |      192670     12.59%     25.12% |      192286     12.56%     37.68% |      190878     12.47%     50.15% |      190094     12.42%     62.56% |      191269     12.49%     75.06% |      192225     12.56%     87.61% |      189616     12.39%    100.00% (Unspecified)
board.cache_hierarchy.ruby_system.L0Cache_Controller.I.InvOwn::total      1530868                       (Unspecified)
board.cache_hierarchy.ruby_system.L0Cache_Controller.I.InvElse |        6114     13.23%     13.23% |        6163     13.34%     26.56% |        5866     12.69%     39.26% |        5742     12.42%     51.68% |        5246     11.35%     63.03% |        5635     12.19%     75.23% |        6071     13.14%     88.36% |        5379     11.64%    100.00% (Unspecified)
board.cache_hierarchy.ruby_system.L0Cache_Controller.I.InvElse::total        46216                       (Unspecified)
board.cache_hierarchy.ruby_system.L0Cache_Controller.S.Load |     4450926     12.83%     12.83% |     4417124     12.74%     25.57% |     4401867     12.69%     38.26% |     4276448     12.33%     50.59% |     4212617     12.15%     62.74% |     4294293     12.38%     75.12% |     4302164     12.40%     87.53% |     4326034     12.47%    100.00% (Unspecified)
board.cache_hierarchy.ruby_system.L0Cache_Controller.S.Load::total     34681473                       (Unspecified)
board.cache_hierarchy.ruby_system.L0Cache_Controller.S.Ifetch |    40492273     12.75%     12.75% |    40196312     12.66%     25.41% |    40110491     12.63%     38.03% |    39433774     12.42%     50.45% |    39134245     12.32%     62.77% |    38994974     12.28%     75.05% |    39512220     12.44%     87.49% |    39728995     12.51%    100.00% (Unspecified)
board.cache_hierarchy.ruby_system.L0Cache_Controller.S.Ifetch::total    317603284                       (Unspecified)
board.cache_hierarchy.ruby_system.L0Cache_Controller.S.Store |       10385     11.70%     11.70% |       11087     12.49%     24.20% |       11926     13.44%     37.64% |       10751     12.12%     49.75% |       11341     12.78%     62.53% |       10730     12.09%     74.62% |       10362     11.68%     86.30% |       12159     13.70%    100.00% (Unspecified)
board.cache_hierarchy.ruby_system.L0Cache_Controller.S.Store::total        88741                       (Unspecified)
board.cache_hierarchy.ruby_system.L0Cache_Controller.S.InvOwn |       15214     12.37%     12.37% |       15317     12.46%     24.83% |       15412     12.53%     37.37% |       15327     12.47%     49.83% |       15344     12.48%     62.31% |       15590     12.68%     74.99% |       15399     12.52%     87.51% |       15351     12.49%    100.00% (Unspecified)
board.cache_hierarchy.ruby_system.L0Cache_Controller.S.InvOwn::total       122954                       (Unspecified)
board.cache_hierarchy.ruby_system.L0Cache_Controller.S.InvElse |        1839     13.27%     13.27% |        1769     12.76%     26.03% |        1848     13.33%     39.36% |        1805     13.02%     52.38% |        1561     11.26%     63.64% |        1786     12.88%     76.52% |        1775     12.80%     89.32% |        1480     10.68%    100.00% (Unspecified)
board.cache_hierarchy.ruby_system.L0Cache_Controller.S.InvElse::total        13863                       (Unspecified)
board.cache_hierarchy.ruby_system.L0Cache_Controller.S.L0_Replacement |      348234     12.57%     12.57% |      349507     12.61%     25.18% |      348729     12.58%     37.76% |      345674     12.47%     50.23% |      342480     12.36%     62.59% |      345399     12.46%     75.06% |      348607     12.58%     87.63% |      342672     12.37%    100.00% (Unspecified)
board.cache_hierarchy.ruby_system.L0Cache_Controller.S.L0_Replacement::total      2771302                       (Unspecified)
board.cache_hierarchy.ruby_system.L0Cache_Controller.E.Load |     2290316     12.56%     12.56% |     2281109     12.50%     25.06% |     2274753     12.47%     37.53% |     2286984     12.54%     50.07% |     2258665     12.38%     62.45% |     2242070     12.29%     74.74% |     2302637     12.62%     87.36% |     2305053     12.64%    100.00% (Unspecified)
board.cache_hierarchy.ruby_system.L0Cache_Controller.E.Load::total     18241587                       (Unspecified)
board.cache_hierarchy.ruby_system.L0Cache_Controller.E.Ifetch |       31908      2.76%      2.76% |        1841      0.16%      2.92% |        1231      0.11%      3.02% |         650      0.06%      3.08% |       85841      7.42%     10.49% |      509925     44.06%     54.55% |      269423     23.28%     77.83% |      256603     22.17%    100.00% (Unspecified)
board.cache_hierarchy.ruby_system.L0Cache_Controller.E.Ifetch::total      1157422                       (Unspecified)
board.cache_hierarchy.ruby_system.L0Cache_Controller.E.Store |       65468     12.62%     12.62% |       65097     12.55%     25.17% |       65039     12.54%     37.70% |       64952     12.52%     50.22% |       64256     12.39%     62.61% |       64837     12.50%     75.10% |       65233     12.57%     87.68% |       63928     12.32%    100.00% (Unspecified)
board.cache_hierarchy.ruby_system.L0Cache_Controller.E.Store::total       518810                       (Unspecified)
board.cache_hierarchy.ruby_system.L0Cache_Controller.E.InvOwn |        2377     60.87%     60.87% |          77      1.97%     62.84% |           5      0.13%     62.97% |          31      0.79%     63.76% |         257      6.58%     70.35% |        1086     27.81%     98.16% |          66      1.69%     99.85% |           6      0.15%    100.00% (Unspecified)
board.cache_hierarchy.ruby_system.L0Cache_Controller.E.InvOwn::total         3905                       (Unspecified)
board.cache_hierarchy.ruby_system.L0Cache_Controller.E.InvElse |        2470     14.31%     14.31% |        2124     12.30%     26.61% |        2143     12.41%     39.02% |        2093     12.12%     51.14% |        1965     11.38%     62.53% |        2212     12.81%     75.34% |        2242     12.99%     88.32% |        2016     11.68%    100.00% (Unspecified)
board.cache_hierarchy.ruby_system.L0Cache_Controller.E.InvElse::total        17265                       (Unspecified)
board.cache_hierarchy.ruby_system.L0Cache_Controller.E.L0_Replacement |      381876     12.49%     12.49% |      382012     12.50%     24.99% |      381341     12.48%     37.47% |      381649     12.49%     49.96% |      381895     12.49%     62.45% |      384591     12.58%     75.03% |      382067     12.50%     87.53% |      381060     12.47%    100.00% (Unspecified)
board.cache_hierarchy.ruby_system.L0Cache_Controller.E.L0_Replacement::total      3056491                       (Unspecified)
board.cache_hierarchy.ruby_system.L0Cache_Controller.M.Load |     1237717     12.37%     12.37% |     1226683     12.26%     24.64% |     1227268     12.27%     36.91% |     1213882     12.14%     49.04% |     1288262     12.88%     61.92% |     1346753     13.46%     75.38% |     1228453     12.28%     87.67% |     1233784     12.33%    100.00% (Unspecified)
board.cache_hierarchy.ruby_system.L0Cache_Controller.M.Load::total     10002802                       (Unspecified)
board.cache_hierarchy.ruby_system.L0Cache_Controller.M.Store |      664222     11.76%     11.76% |      661920     11.72%     23.47% |      671681     11.89%     35.36% |      738128     13.06%     48.42% |      793002     14.04%     62.46% |      681440     12.06%     74.52% |      736193     13.03%     87.55% |      703560     12.45%    100.00% (Unspecified)
board.cache_hierarchy.ruby_system.L0Cache_Controller.M.Store::total      5650146                       (Unspecified)
board.cache_hierarchy.ruby_system.L0Cache_Controller.M.InvOwn |          14     13.73%     13.73% |          12     11.76%     25.49% |          12     11.76%     37.25% |          14     13.73%     50.98% |          12     11.76%     62.75% |          14     13.73%     76.47% |          12     11.76%     88.24% |          12     11.76%    100.00% (Unspecified)
board.cache_hierarchy.ruby_system.L0Cache_Controller.M.InvOwn::total          102                       (Unspecified)
board.cache_hierarchy.ruby_system.L0Cache_Controller.M.InvElse |        1670     11.61%     11.61% |        1545     10.74%     22.35% |        1861     12.94%     35.29% |        1476     10.26%     45.55% |        2165     15.05%     60.61% |        1727     12.01%     72.61% |        1437      9.99%     82.60% |        2502     17.40%    100.00% (Unspecified)
board.cache_hierarchy.ruby_system.L0Cache_Controller.M.InvElse::total        14383                       (Unspecified)
board.cache_hierarchy.ruby_system.L0Cache_Controller.M.L0_Replacement |       92896     11.78%     11.78% |       94011     11.92%     23.70% |       96132     12.19%     35.89% |      104538     13.25%     49.14% |      107465     13.63%     62.77% |       90238     11.44%     74.21% |      104014     13.19%     87.40% |       99380     12.60%    100.00% (Unspecified)
board.cache_hierarchy.ruby_system.L0Cache_Controller.M.L0_Replacement::total       788674                       (Unspecified)
board.cache_hierarchy.ruby_system.L0Cache_Controller.Inst_IS.Data |       11444     12.30%     12.30% |       11531     12.39%     24.70% |       11608     12.48%     37.17% |       11548     12.41%     49.59% |       11681     12.56%     62.14% |       12037     12.94%     75.08% |       11601     12.47%     87.55% |       11584     12.45%    100.00% (Unspecified)
board.cache_hierarchy.ruby_system.L0Cache_Controller.Inst_IS.Data::total        93034                       (Unspecified)
board.cache_hierarchy.ruby_system.L0Cache_Controller.Inst_IS.Data_Exclusive |        2594     46.91%     46.91% |         140      2.53%     49.44% |          70      1.27%     50.71% |          55      0.99%     51.70% |         276      4.99%     56.69% |        2249     40.67%     97.36% |         126      2.28%     99.64% |          20      0.36%    100.00% (Unspecified)
board.cache_hierarchy.ruby_system.L0Cache_Controller.Inst_IS.Data_Exclusive::total         5530                       (Unspecified)
board.cache_hierarchy.ruby_system.L0Cache_Controller.IS.Data |      364246     12.54%     12.54% |      366171     12.61%     25.15% |      366329     12.61%     37.77% |      362031     12.47%     50.23% |      359067     12.36%     62.60% |      361473     12.45%     75.05% |      364563     12.55%     87.60% |      360100     12.40%    100.00% (Unspecified)
board.cache_hierarchy.ruby_system.L0Cache_Controller.IS.Data::total      2903980                       (Unspecified)
board.cache_hierarchy.ruby_system.L0Cache_Controller.IS.Data_Exclusive |      449598     12.52%     12.52% |      449172     12.51%     25.03% |      448458     12.49%     37.52% |      448670     12.49%     50.01% |      448097     12.48%     62.49% |      450478     12.54%     75.04% |      449483     12.52%     87.55% |      446990     12.45%    100.00% (Unspecified)
board.cache_hierarchy.ruby_system.L0Cache_Controller.IS.Data_Exclusive::total      3590946                       (Unspecified)
board.cache_hierarchy.ruby_system.L0Cache_Controller.IS.Data_Stale |           1      5.56%      5.56% |           4     22.22%     27.78% |           4     22.22%     50.00% |           1      5.56%     55.56% |           4     22.22%     77.78% |           4     22.22%    100.00% |           0      0.00%    100.00% |           0      0.00%    100.00% (Unspecified)
board.cache_hierarchy.ruby_system.L0Cache_Controller.IS.Data_Stale::total           18                       (Unspecified)
board.cache_hierarchy.ruby_system.L0Cache_Controller.IM.Data_Exclusive |       19228      9.63%      9.63% |       19883      9.96%     19.59% |       21541     10.79%     30.38% |       30827     15.44%     45.83% |       34547     17.31%     63.13% |       16919      8.48%     71.61% |       30368     15.21%     86.82% |       26307     13.18%    100.00% (Unspecified)
board.cache_hierarchy.ruby_system.L0Cache_Controller.IM.Data_Exclusive::total       199620                       (Unspecified)
board.cache_hierarchy.ruby_system.L0Cache_Controller.SM.InvElse |           4     14.29%     14.29% |           4     14.29%     28.57% |           4     14.29%     42.86% |           5     17.86%     60.71% |           5     17.86%     78.57% |           1      3.57%     82.14% |           3     10.71%     92.86% |           2      7.14%    100.00% (Unspecified)
board.cache_hierarchy.ruby_system.L0Cache_Controller.SM.InvElse::total           28                       (Unspecified)
board.cache_hierarchy.ruby_system.L0Cache_Controller.SM.Data_Exclusive |       10381     11.70%     11.70% |       11083     12.49%     24.19% |       11922     13.44%     37.63% |       10746     12.11%     49.75% |       11336     12.78%     62.53% |       10729     12.09%     74.62% |       10359     11.68%     86.30% |       12157     13.70%    100.00% (Unspecified)
board.cache_hierarchy.ruby_system.L0Cache_Controller.SM.Data_Exclusive::total        88713                       (Unspecified)
board.cache_hierarchy.ruby_system.L1Cache_Controller.Load |      827883     12.56%     12.56% |      827018     12.54%     25.10% |      826469     12.53%     37.63% |      822305     12.47%     50.10% |      819125     12.42%     62.53% |      826241     12.53%     75.06% |      825773     12.52%     87.58% |      818694     12.42%    100.00% (Unspecified)
board.cache_hierarchy.ruby_system.L1Cache_Controller.Load::total      6593508                       (Unspecified)
board.cache_hierarchy.ruby_system.L1Cache_Controller.Store |       29612     10.27%     10.27% |       30969     10.74%     21.01% |       33466     11.61%     32.62% |       41577     14.42%     47.03% |       45887     15.91%     62.95% |       27649      9.59%     72.54% |       40729     14.12%     86.66% |       38466     13.34%    100.00% (Unspecified)
board.cache_hierarchy.ruby_system.L1Cache_Controller.Store::total       288355                       (Unspecified)
board.cache_hierarchy.ruby_system.L1Cache_Controller.WriteBack |      474772     12.35%     12.35% |      476023     12.38%     24.73% |      477473     12.42%     37.14% |      486187     12.64%     49.79% |      489360     12.73%     62.52% |      474829     12.35%     74.86% |      486081     12.64%     87.51% |      480440     12.49%    100.00% (Unspecified)
board.cache_hierarchy.ruby_system.L1Cache_Controller.WriteBack::total      3845165                       (Unspecified)
board.cache_hierarchy.ruby_system.L1Cache_Controller.L0_DataAck |        1684     11.63%     11.63% |        1557     10.75%     22.37% |        1873     12.93%     35.31% |        1490     10.29%     45.59% |        2177     15.03%     60.62% |        1741     12.02%     72.64% |        1449     10.00%     82.64% |        2514     17.36%    100.00% (Unspecified)
board.cache_hierarchy.ruby_system.L1Cache_Controller.L0_DataAck::total        14485                       (Unspecified)
board.cache_hierarchy.ruby_system.L1Cache_Controller.Inv |       85455     12.59%     12.59% |       85712     12.63%     25.22% |       85058     12.53%     37.76% |       84375     12.43%     50.19% |       84063     12.39%     62.58% |       84533     12.46%     75.03% |       85441     12.59%     87.62% |       84006     12.38%    100.00% (Unspecified)
board.cache_hierarchy.ruby_system.L1Cache_Controller.Inv::total       678643                       (Unspecified)
board.cache_hierarchy.ruby_system.L1Cache_Controller.L0_Invalidate_Own |      418870     12.63%     12.63% |      416152     12.55%     25.18% |      415430     12.53%     37.71% |      412500     12.44%     50.15% |      411414     12.41%     62.56% |      415918     12.54%     75.11% |      415404     12.53%     87.64% |      409970     12.36%    100.00% (Unspecified)
board.cache_hierarchy.ruby_system.L1Cache_Controller.L0_Invalidate_Own::total      3315658                       (Unspecified)
board.cache_hierarchy.ruby_system.L1Cache_Controller.L0_Invalidate_Else |       24194     13.18%     13.18% |       23210     12.65%     25.83% |       23444     12.78%     38.61% |       22242     12.12%     50.73% |       21884     11.93%     62.65% |       22722     12.38%     75.03% |       23056     12.56%     87.60% |       22758     12.40%    100.00% (Unspecified)
board.cache_hierarchy.ruby_system.L1Cache_Controller.L0_Invalidate_Else::total       183510                       (Unspecified)
board.cache_hierarchy.ruby_system.L1Cache_Controller.L1_Replacement |      674987     12.44%     12.44% |      674802     12.43%     24.87% |      675751     12.45%     37.32% |      683495     12.59%     49.91% |      685607     12.63%     62.54% |      673500     12.41%     74.95% |      683278     12.59%     87.54% |      676495     12.46%    100.00% (Unspecified)
board.cache_hierarchy.ruby_system.L1Cache_Controller.L1_Replacement::total      5427915                       (Unspecified)
board.cache_hierarchy.ruby_system.L1Cache_Controller.Fwd_GETX |         120      3.57%      3.57% |         136      4.05%      7.63% |         141      4.20%     11.83% |         143      4.26%     16.09% |        1200     35.75%     51.83% |         326      9.71%     61.54% |        1146     34.14%     95.68% |         145      4.32%    100.00% (Unspecified)
board.cache_hierarchy.ruby_system.L1Cache_Controller.Fwd_GETX::total         3357                       (Unspecified)
board.cache_hierarchy.ruby_system.L1Cache_Controller.Fwd_GETS |       23830     12.52%     12.52% |       23630     12.42%     24.94% |       24129     12.68%     37.63% |       23333     12.26%     49.89% |       23732     12.47%     62.36% |       23305     12.25%     74.61% |       23759     12.49%     87.10% |       24550     12.90%    100.00% (Unspecified)
board.cache_hierarchy.ruby_system.L1Cache_Controller.Fwd_GETS::total       190268                       (Unspecified)
board.cache_hierarchy.ruby_system.L1Cache_Controller.Data |         214     44.77%     44.77% |          31      6.49%     51.26% |          32      6.69%     57.95% |          41      8.58%     66.53% |          40      8.37%     74.90% |          53     11.09%     85.98% |          35      7.32%     93.31% |          32      6.69%    100.00% (Unspecified)
board.cache_hierarchy.ruby_system.L1Cache_Controller.Data::total          478                       (Unspecified)
board.cache_hierarchy.ruby_system.L1Cache_Controller.Data_Exclusive |      448738     12.57%     12.57% |      445967     12.49%     25.07% |      444981     12.47%     37.53% |      445464     12.48%     50.01% |      445194     12.47%     62.49% |      449029     12.58%     75.07% |      446242     12.50%     87.57% |      443660     12.43%    100.00% (Unspecified)
board.cache_hierarchy.ruby_system.L1Cache_Controller.Data_Exclusive::total      3569275                       (Unspecified)
board.cache_hierarchy.ruby_system.L1Cache_Controller.DataS_fromL1 |       24185     12.71%     12.71% |       24531     12.89%     25.60% |       23933     12.58%     38.18% |       23312     12.25%     50.43% |       23250     12.22%     62.65% |       23958     12.59%     75.25% |       23733     12.47%     87.72% |       23366     12.28%    100.00% (Unspecified)
board.cache_hierarchy.ruby_system.L1Cache_Controller.DataS_fromL1::total       190268                       (Unspecified)
board.cache_hierarchy.ruby_system.L1Cache_Controller.Data_all_Acks |      218535     12.15%     12.15% |      220835     12.28%     24.44% |      223059     12.41%     36.84% |      230594     12.83%     49.67% |      233062     12.96%     62.63% |      216282     12.03%     74.66% |      230998     12.85%     87.51% |      224632     12.49%    100.00% (Unspecified)
board.cache_hierarchy.ruby_system.L1Cache_Controller.Data_all_Acks::total      1797997                       (Unspecified)
board.cache_hierarchy.ruby_system.L1Cache_Controller.L0_Ack |      219848     12.67%     12.67% |      218124     12.57%     25.24% |      217564     12.54%     37.78% |      215881     12.44%     50.22% |      214472     12.36%     62.58% |      217579     12.54%     75.12% |      217781     12.55%     87.68% |      213850     12.32%    100.00% (Unspecified)
board.cache_hierarchy.ruby_system.L1Cache_Controller.L0_Ack::total      1735099                       (Unspecified)
board.cache_hierarchy.ruby_system.L1Cache_Controller.Ack |       33958     11.64%     11.64% |       34472     11.82%     23.46% |       37303     12.79%     36.24% |       35639     12.22%     48.46% |       38690     13.26%     61.72% |       35154     12.05%     73.77% |       34714     11.90%     85.67% |       41808     14.33%    100.00% (Unspecified)
board.cache_hierarchy.ruby_system.L1Cache_Controller.Ack::total       291738                       (Unspecified)
board.cache_hierarchy.ruby_system.L1Cache_Controller.Ack_all |       10605     11.88%     11.88% |       11115     12.45%     24.34% |       11956     13.40%     37.73% |       10789     12.09%     49.82% |       11384     12.75%     62.57% |       10813     12.12%     74.69% |       10395     11.65%     86.34% |       12195     13.66%    100.00% (Unspecified)
board.cache_hierarchy.ruby_system.L1Cache_Controller.Ack_all::total        89252                       (Unspecified)
board.cache_hierarchy.ruby_system.L1Cache_Controller.WB_Ack |      449883     12.40%     12.40% |      448682     12.37%     24.77% |      449686     12.40%     37.16% |      459077     12.65%     49.82% |      461620     12.72%     62.54% |      448439     12.36%     74.90% |      457559     12.61%     87.52% |      452866     12.48%    100.00% (Unspecified)
board.cache_hierarchy.ruby_system.L1Cache_Controller.WB_Ack::total      3627812                       (Unspecified)
board.cache_hierarchy.ruby_system.L1Cache_Controller.I.Load |      672596     12.55%     12.55% |      671608     12.53%     25.08% |      670584     12.51%     37.59% |      668703     12.48%     50.07% |      667143     12.45%     62.52% |      672598     12.55%     75.07% |      670775     12.52%     87.58% |      665519     12.42%    100.00% (Unspecified)
board.cache_hierarchy.ruby_system.L1Cache_Controller.I.Load::total      5359526                       (Unspecified)
board.cache_hierarchy.ruby_system.L1Cache_Controller.I.Store |       19075      9.61%      9.61% |       19755      9.95%     19.56% |       21420     10.79%     30.35% |       30707     15.47%     45.83% |       34402     17.33%     63.16% |       16724      8.43%     71.58% |       30232     15.23%     86.81% |       26171     13.19%    100.00% (Unspecified)
board.cache_hierarchy.ruby_system.L1Cache_Controller.I.Store::total       198486                       (Unspecified)
board.cache_hierarchy.ruby_system.L1Cache_Controller.I.Inv |       72982     12.49%     12.49% |       73220     12.53%     25.01% |       73034     12.50%     37.51% |       72697     12.44%     49.95% |       73419     12.56%     62.51% |       73132     12.51%     75.02% |       72952     12.48%     87.50% |       73052     12.50%    100.00% (Unspecified)
board.cache_hierarchy.ruby_system.L1Cache_Controller.I.Inv::total       584488                       (Unspecified)
board.cache_hierarchy.ruby_system.L1Cache_Controller.S.Load |      150288     12.58%     12.58% |      150671     12.62%     25.20% |      150577     12.61%     37.81% |      149054     12.48%     50.29% |      147140     12.32%     62.61% |      148482     12.43%     75.05% |      150311     12.59%     87.63% |      147677     12.37%    100.00% (Unspecified)
board.cache_hierarchy.ruby_system.L1Cache_Controller.S.Load::total      1194200                       (Unspecified)
board.cache_hierarchy.ruby_system.L1Cache_Controller.S.Store |       10384     11.70%     11.70% |       11085     12.49%     24.19% |       11923     13.44%     37.63% |       10747     12.11%     49.74% |       11337     12.78%     62.52% |       10741     12.10%     74.62% |       10360     11.68%     86.30% |       12157     13.70%    100.00% (Unspecified)
board.cache_hierarchy.ruby_system.L1Cache_Controller.S.Store::total        88734                       (Unspecified)
board.cache_hierarchy.ruby_system.L1Cache_Controller.S.L0_Invalidate_Own |      207044     12.52%     12.52% |      207987     12.58%     25.10% |      207698     12.56%     37.65% |      206205     12.47%     50.12% |      205438     12.42%     62.54% |      206859     12.51%     75.05% |      207624     12.55%     87.61% |      204967     12.39%    100.00% (Unspecified)
board.cache_hierarchy.ruby_system.L1Cache_Controller.S.L0_Invalidate_Own::total      1653822                       (Unspecified)
board.cache_hierarchy.ruby_system.L1Cache_Controller.S.L0_Invalidate_Else |        7956     13.24%     13.24% |        7935     13.20%     26.44% |        7717     12.84%     39.28% |        7551     12.56%     51.85% |        6811     11.33%     63.18% |        7421     12.35%     75.53% |        7848     13.06%     88.58% |        6861     11.42%    100.00% (Unspecified)
board.cache_hierarchy.ruby_system.L1Cache_Controller.S.L0_Invalidate_Else::total        60100                       (Unspecified)
board.cache_hierarchy.ruby_system.L1Cache_Controller.SS.Load |        1545     12.28%     12.28% |        1394     11.08%     23.36% |        1761     14.00%     37.36% |        1287     10.23%     47.59% |        1663     13.22%     60.81% |        1463     11.63%     72.43% |        1320     10.49%     82.93% |        2148     17.07%    100.00% (Unspecified)
board.cache_hierarchy.ruby_system.L1Cache_Controller.SS.Load::total        12581                       (Unspecified)
board.cache_hierarchy.ruby_system.L1Cache_Controller.SS.Store |           8     17.02%     17.02% |           0      0.00%     17.02% |           2      4.26%     21.28% |           2      4.26%     25.53% |           8     17.02%     42.55% |          20     42.55%     85.11% |           1      2.13%     87.23% |           6     12.77%    100.00% (Unspecified)
board.cache_hierarchy.ruby_system.L1Cache_Controller.SS.Store::total           47                       (Unspecified)
board.cache_hierarchy.ruby_system.L1Cache_Controller.SS.Inv |       12170     13.31%     13.31% |       12038     13.16%     26.47% |       11715     12.81%     39.28% |       11382     12.45%     51.72% |       10323     11.29%     63.01% |       11041     12.07%     75.09% |       12191     13.33%     88.42% |       10595     11.58%    100.00% (Unspecified)
board.cache_hierarchy.ruby_system.L1Cache_Controller.SS.Inv::total        91455                       (Unspecified)
board.cache_hierarchy.ruby_system.L1Cache_Controller.SS.L1_Replacement |      225104     12.51%     12.51% |      226120     12.56%     25.07% |      226065     12.56%     37.63% |      224418     12.47%     50.09% |      223987     12.44%     62.53% |      225061     12.50%     75.04% |      225719     12.54%     87.58% |      223629     12.42%    100.00% (Unspecified)
board.cache_hierarchy.ruby_system.L1Cache_Controller.SS.L1_Replacement::total      1800103                       (Unspecified)
board.cache_hierarchy.ruby_system.L1Cache_Controller.E.WriteBack |      443518     12.51%     12.51% |      443381     12.51%     25.02% |      442433     12.48%     37.50% |      442903     12.49%     49.99% |      442508     12.48%     62.48% |      445414     12.56%     75.04% |      443560     12.51%     87.55% |      441203     12.45%    100.00% (Unspecified)
board.cache_hierarchy.ruby_system.L1Cache_Controller.E.WriteBack::total      3544920                       (Unspecified)
board.cache_hierarchy.ruby_system.L1Cache_Controller.E.L0_Invalidate_Own |        2389     61.19%     61.19% |          88      2.25%     63.45% |          17      0.44%     63.88% |          44      1.13%     65.01% |         268      6.86%     71.88% |        1004     25.72%     97.59% |          77      1.97%     99.56% |          17      0.44%    100.00% (Unspecified)
board.cache_hierarchy.ruby_system.L1Cache_Controller.E.L0_Invalidate_Own::total         3904                       (Unspecified)
board.cache_hierarchy.ruby_system.L1Cache_Controller.E.L0_Invalidate_Else |        2829     13.84%     13.84% |        2495     12.21%     26.05% |        2530     12.38%     38.43% |        2516     12.31%     50.74% |        2417     11.83%     62.56% |        2610     12.77%     75.33% |        2603     12.74%     88.07% |        2439     11.93%    100.00% (Unspecified)
board.cache_hierarchy.ruby_system.L1Cache_Controller.E.L0_Invalidate_Else::total        20439                       (Unspecified)
board.cache_hierarchy.ruby_system.L1Cache_Controller.EE.Inv |           1     50.00%     50.00% |           0      0.00%     50.00% |           0      0.00%     50.00% |           0      0.00%     50.00% |           0      0.00%     50.00% |           1     50.00%    100.00% |           0      0.00%    100.00% |           0      0.00%    100.00% (Unspecified)
board.cache_hierarchy.ruby_system.L1Cache_Controller.EE.Inv::total            2                       (Unspecified)
board.cache_hierarchy.ruby_system.L1Cache_Controller.EE.L1_Replacement |        2376     62.35%     62.35% |          77      2.02%     64.37% |           5      0.13%     64.50% |          31      0.81%     65.31% |         257      6.74%     72.05% |         993     26.06%     98.11% |          66      1.73%     99.84% |           6      0.16%    100.00% (Unspecified)
board.cache_hierarchy.ruby_system.L1Cache_Controller.EE.L1_Replacement::total         3811                       (Unspecified)
board.cache_hierarchy.ruby_system.L1Cache_Controller.EE.Fwd_GETX |           7     13.73%     13.73% |           7     13.73%     27.45% |           7     13.73%     41.18% |           7     13.73%     54.90% |           8     15.69%     70.59% |           1      1.96%     72.55% |           7     13.73%     86.27% |           7     13.73%    100.00% (Unspecified)
board.cache_hierarchy.ruby_system.L1Cache_Controller.EE.Fwd_GETX::total           51                       (Unspecified)
board.cache_hierarchy.ruby_system.L1Cache_Controller.EE.Fwd_GETS |        2321     14.46%     14.46% |        1972     12.28%     26.74% |        1965     12.24%     38.98% |        1956     12.18%     51.16% |        1834     11.42%     62.58% |        2075     12.92%     75.51% |        2085     12.99%     88.50% |        1847     11.50%    100.00% (Unspecified)
board.cache_hierarchy.ruby_system.L1Cache_Controller.EE.Fwd_GETS::total        16055                       (Unspecified)
board.cache_hierarchy.ruby_system.L1Cache_Controller.M.WriteBack |       31254     10.41%     10.41% |       32642     10.87%     21.28% |       35040     11.67%     32.95% |       43284     14.42%     47.37% |       46852     15.60%     62.97% |       29415      9.80%     72.77% |       42521     14.16%     86.93% |       39237     13.07%    100.00% (Unspecified)
board.cache_hierarchy.ruby_system.L1Cache_Controller.M.WriteBack::total       300245                       (Unspecified)
board.cache_hierarchy.ruby_system.L1Cache_Controller.M.L0_Invalidate_Own |           2      1.94%      1.94% |           1      0.97%      2.91% |           0      0.00%      2.91% |           1      0.97%      3.88% |           1      0.97%      4.85% |          96     93.20%     98.06% |           1      0.97%     99.03% |           1      0.97%    100.00% (Unspecified)
board.cache_hierarchy.ruby_system.L1Cache_Controller.M.L0_Invalidate_Own::total          103                       (Unspecified)
board.cache_hierarchy.ruby_system.L1Cache_Controller.M.L0_Invalidate_Else |        1311     11.70%     11.70% |        1174     10.47%     22.17% |        1474     13.15%     35.32% |        1053      9.39%     44.71% |        1713     15.28%     60.00% |        1329     11.86%     71.85% |        1076      9.60%     81.45% |        2079     18.55%    100.00% (Unspecified)
board.cache_hierarchy.ruby_system.L1Cache_Controller.M.L0_Invalidate_Else::total        11209                       (Unspecified)
board.cache_hierarchy.ruby_system.L1Cache_Controller.MM.Load |        3454     12.70%     12.70% |        3345     12.30%     25.00% |        3547     13.04%     38.04% |        3261     11.99%     50.02% |        3179     11.69%     61.71% |        3698     13.60%     75.31% |        3367     12.38%     87.68% |        3350     12.32%    100.00% (Unspecified)
board.cache_hierarchy.ruby_system.L1Cache_Controller.MM.Load::total        27201                       (Unspecified)
board.cache_hierarchy.ruby_system.L1Cache_Controller.MM.Store |         142     13.31%     13.31% |         126     11.81%     25.12% |         118     11.06%     36.18% |         117     10.97%     47.14% |         136     12.75%     59.89% |         164     15.37%     75.26% |         134     12.56%     87.82% |         130     12.18%    100.00% (Unspecified)
board.cache_hierarchy.ruby_system.L1Cache_Controller.MM.Store::total         1067                       (Unspecified)
board.cache_hierarchy.ruby_system.L1Cache_Controller.MM.Inv |         300     11.22%     11.22% |         449     16.80%     28.02% |         304     11.37%     39.39% |         294     11.00%     50.39% |         316     11.82%     62.21% |         354     13.24%     75.46% |         297     11.11%     86.57% |         359     13.43%    100.00% (Unspecified)
board.cache_hierarchy.ruby_system.L1Cache_Controller.MM.Inv::total         2673                       (Unspecified)
board.cache_hierarchy.ruby_system.L1Cache_Controller.MM.L1_Replacement |      447507     12.35%     12.35% |      448605     12.38%     24.73% |      449681     12.41%     37.14% |      459046     12.67%     49.80% |      461363     12.73%     62.53% |      447446     12.35%     74.88% |      457493     12.62%     87.50% |      452860     12.50%    100.00% (Unspecified)
board.cache_hierarchy.ruby_system.L1Cache_Controller.MM.L1_Replacement::total      3624001                       (Unspecified)
board.cache_hierarchy.ruby_system.L1Cache_Controller.MM.Fwd_GETX |         113      3.42%      3.42% |         129      3.90%      7.32% |         134      4.05%     11.37% |         136      4.11%     15.49% |        1192     36.06%     51.54% |         325      9.83%     61.37% |        1139     34.45%     95.83% |         138      4.17%    100.00% (Unspecified)
board.cache_hierarchy.ruby_system.L1Cache_Controller.MM.Fwd_GETX::total         3306                       (Unspecified)
board.cache_hierarchy.ruby_system.L1Cache_Controller.MM.Fwd_GETS |       21509     12.35%     12.35% |       21658     12.43%     24.78% |       22163     12.72%     37.50% |       21377     12.27%     49.77% |       21898     12.57%     62.34% |       21230     12.19%     74.53% |       21674     12.44%     86.97% |       22703     13.03%    100.00% (Unspecified)
board.cache_hierarchy.ruby_system.L1Cache_Controller.MM.Fwd_GETS::total       174212                       (Unspecified)
board.cache_hierarchy.ruby_system.L1Cache_Controller.IS.Inv |           1      5.56%      5.56% |           4     22.22%     27.78% |           4     22.22%     50.00% |           1      5.56%     55.56% |           4     22.22%     77.78% |           4     22.22%    100.00% |           0      0.00%    100.00% |           0      0.00%    100.00% (Unspecified)
board.cache_hierarchy.ruby_system.L1Cache_Controller.IS.Inv::total           18                       (Unspecified)
board.cache_hierarchy.ruby_system.L1Cache_Controller.IS.Data_Exclusive |      448738     12.57%     12.57% |      445967     12.49%     25.07% |      444981     12.47%     37.53% |      445464     12.48%     50.01% |      445194     12.47%     62.49% |      449029     12.58%     75.07% |      446242     12.50%     87.57% |      443660     12.43%    100.00% (Unspecified)
board.cache_hierarchy.ruby_system.L1Cache_Controller.IS.Data_Exclusive::total      3569275                       (Unspecified)
board.cache_hierarchy.ruby_system.L1Cache_Controller.IS.DataS_fromL1 |       24185     12.71%     12.71% |       24531     12.89%     25.60% |       23933     12.58%     38.18% |       23312     12.25%     50.43% |       23250     12.22%     62.65% |       23958     12.59%     75.25% |       23733     12.47%     87.72% |       23366     12.28%    100.00% (Unspecified)
board.cache_hierarchy.ruby_system.L1Cache_Controller.IS.DataS_fromL1::total       190268                       (Unspecified)
board.cache_hierarchy.ruby_system.L1Cache_Controller.IS.Data_all_Acks |      199672     12.48%     12.48% |      201106     12.57%     25.05% |      201666     12.60%     37.65% |      199926     12.50%     50.15% |      198695     12.42%     62.57% |      199607     12.48%     75.04% |      200800     12.55%     87.59% |      198493     12.41%    100.00% (Unspecified)
board.cache_hierarchy.ruby_system.L1Cache_Controller.IS.Data_all_Acks::total      1599965                       (Unspecified)
board.cache_hierarchy.ruby_system.L1Cache_Controller.IM.Inv |           1     14.29%     14.29% |           1     14.29%     28.57% |           1     14.29%     42.86% |           1     14.29%     57.14% |           1     14.29%     71.43% |           1     14.29%     85.71% |           1     14.29%    100.00% |           0      0.00%    100.00% (Unspecified)
board.cache_hierarchy.ruby_system.L1Cache_Controller.IM.Inv::total            7                       (Unspecified)
board.cache_hierarchy.ruby_system.L1Cache_Controller.IM.Data |         214     44.77%     44.77% |          31      6.49%     51.26% |          32      6.69%     57.95% |          41      8.58%     66.53% |          40      8.37%     74.90% |          53     11.09%     85.98% |          35      7.32%     93.31% |          32      6.69%    100.00% (Unspecified)
board.cache_hierarchy.ruby_system.L1Cache_Controller.IM.Data::total          478                       (Unspecified)
board.cache_hierarchy.ruby_system.L1Cache_Controller.IM.Data_all_Acks |       18862      9.53%      9.53% |       19725      9.96%     19.49% |       21389     10.80%     30.29% |       30667     15.49%     45.78% |       34363     17.35%     63.13% |       16671      8.42%     71.55% |       30198     15.25%     86.80% |       26139     13.20%    100.00% (Unspecified)
board.cache_hierarchy.ruby_system.L1Cache_Controller.IM.Data_all_Acks::total       198014                       (Unspecified)
board.cache_hierarchy.ruby_system.L1Cache_Controller.SM.L0_Invalidate_Else |           1     14.29%     14.29% |           1     14.29%     28.57% |           1     14.29%     42.86% |           1     14.29%     57.14% |           1     14.29%     71.43% |           1     14.29%     85.71% |           1     14.29%    100.00% |           0      0.00%    100.00% (Unspecified)
board.cache_hierarchy.ruby_system.L1Cache_Controller.SM.L0_Invalidate_Else::total            7                       (Unspecified)
board.cache_hierarchy.ruby_system.L1Cache_Controller.SM.Ack |       33958     11.64%     11.64% |       34472     11.82%     23.46% |       37303     12.79%     36.24% |       35639     12.22%     48.46% |       38690     13.26%     61.72% |       35154     12.05%     73.77% |       34714     11.90%     85.67% |       41808     14.33%    100.00% (Unspecified)
board.cache_hierarchy.ruby_system.L1Cache_Controller.SM.Ack::total       291738                       (Unspecified)
board.cache_hierarchy.ruby_system.L1Cache_Controller.SM.Ack_all |       10605     11.88%     11.88% |       11115     12.45%     24.34% |       11956     13.40%     37.73% |       10789     12.09%     49.82% |       11384     12.75%     62.57% |       10813     12.12%     74.69% |       10395     11.65%     86.34% |       12195     13.66%    100.00% (Unspecified)
board.cache_hierarchy.ruby_system.L1Cache_Controller.SM.Ack_all::total        89252                       (Unspecified)
board.cache_hierarchy.ruby_system.L1Cache_Controller.IS_I.Data_all_Acks |           1      5.56%      5.56% |           4     22.22%     27.78% |           4     22.22%     50.00% |           1      5.56%     55.56% |           4     22.22%     77.78% |           4     22.22%    100.00% |           0      0.00%    100.00% |           0      0.00%    100.00% (Unspecified)
board.cache_hierarchy.ruby_system.L1Cache_Controller.IS_I.Data_all_Acks::total           18                       (Unspecified)
board.cache_hierarchy.ruby_system.L1Cache_Controller.M_I.Fwd_GETS |           0      0.00%      0.00% |           0      0.00%      0.00% |           1    100.00%    100.00% |           0      0.00%    100.00% |           0      0.00%    100.00% |           0      0.00%    100.00% |           0      0.00%    100.00% |           0      0.00%    100.00% (Unspecified)
board.cache_hierarchy.ruby_system.L1Cache_Controller.M_I.Fwd_GETS::total            1                       (Unspecified)
board.cache_hierarchy.ruby_system.L1Cache_Controller.M_I.WB_Ack |      449883     12.40%     12.40% |      448682     12.37%     24.77% |      449685     12.40%     37.16% |      459077     12.65%     49.82% |      461620     12.72%     62.54% |      448439     12.36%     74.90% |      457559     12.61%     87.52% |      452866     12.48%    100.00% (Unspecified)
board.cache_hierarchy.ruby_system.L1Cache_Controller.M_I.WB_Ack::total      3627811                       (Unspecified)
board.cache_hierarchy.ruby_system.L1Cache_Controller.SINK_WB_ACK.WB_Ack |           0      0.00%      0.00% |           0      0.00%      0.00% |           1    100.00%    100.00% |           0      0.00%    100.00% |           0      0.00%    100.00% |           0      0.00%    100.00% |           0      0.00%    100.00% |           0      0.00%    100.00% (Unspecified)
board.cache_hierarchy.ruby_system.L1Cache_Controller.SINK_WB_ACK.WB_Ack::total            1                       (Unspecified)
board.cache_hierarchy.ruby_system.L1Cache_Controller.S_IL0.Store |           3     14.29%     14.29% |           3     14.29%     28.57% |           3     14.29%     42.86% |           4     19.05%     61.90% |           4     19.05%     80.95% |           0      0.00%     80.95% |           2      9.52%     90.48% |           2      9.52%    100.00% (Unspecified)
board.cache_hierarchy.ruby_system.L1Cache_Controller.S_IL0.Store::total           21                       (Unspecified)
board.cache_hierarchy.ruby_system.L1Cache_Controller.S_IL0.L0_Invalidate_Own |      207044     12.52%     12.52% |      207987     12.58%     25.10% |      207698     12.56%     37.65% |      206205     12.47%     50.12% |      205438     12.42%     62.54% |      206859     12.51%     75.05% |      207624     12.55%     87.61% |      204967     12.39%    100.00% (Unspecified)
board.cache_hierarchy.ruby_system.L1Cache_Controller.S_IL0.L0_Invalidate_Own::total      1653822                       (Unspecified)
board.cache_hierarchy.ruby_system.L1Cache_Controller.S_IL0.L0_Invalidate_Else |        7956     13.24%     13.24% |        7935     13.20%     26.44% |        7717     12.84%     39.28% |        7551     12.56%     51.85% |        6811     11.33%     63.18% |        7421     12.35%     75.53% |        7848     13.06%     88.58% |        6861     11.42%    100.00% (Unspecified)
board.cache_hierarchy.ruby_system.L1Cache_Controller.S_IL0.L0_Invalidate_Else::total        60100                       (Unspecified)
board.cache_hierarchy.ruby_system.L1Cache_Controller.S_IL0.L0_Ack |      215000     12.54%     12.54% |      215922     12.60%     25.14% |      215415     12.57%     37.71% |      213756     12.47%     50.18% |      212249     12.38%     62.57% |      214280     12.50%     75.07% |      215472     12.57%     87.64% |      211828     12.36%    100.00% (Unspecified)
board.cache_hierarchy.ruby_system.L1Cache_Controller.S_IL0.L0_Ack::total      1713922                       (Unspecified)
board.cache_hierarchy.ruby_system.L1Cache_Controller.E_IL0.L0_DataAck |         513     11.60%     11.60% |         527     11.91%     23.51% |         570     12.88%     36.39% |         566     12.79%     49.19% |         586     13.25%     62.43% |         544     12.30%     74.73% |         522     11.80%     86.53% |         596     13.47%    100.00% (Unspecified)
board.cache_hierarchy.ruby_system.L1Cache_Controller.E_IL0.L0_DataAck::total         4424                       (Unspecified)
board.cache_hierarchy.ruby_system.L1Cache_Controller.E_IL0.L0_Invalidate_Own |        2389     61.19%     61.19% |          88      2.25%     63.45% |          17      0.44%     63.88% |          44      1.13%     65.01% |         268      6.86%     71.88% |        1004     25.72%     97.59% |          77      1.97%     99.56% |          17      0.44%    100.00% (Unspecified)
board.cache_hierarchy.ruby_system.L1Cache_Controller.E_IL0.L0_Invalidate_Own::total         3904                       (Unspecified)
board.cache_hierarchy.ruby_system.L1Cache_Controller.E_IL0.L0_Invalidate_Else |        2829     13.84%     13.84% |        2495     12.21%     26.05% |        2530     12.38%     38.43% |        2516     12.31%     50.74% |        2417     11.83%     62.56% |        2610     12.77%     75.33% |        2603     12.74%     88.07% |        2439     11.93%    100.00% (Unspecified)
board.cache_hierarchy.ruby_system.L1Cache_Controller.E_IL0.L0_Invalidate_Else::total        20439                       (Unspecified)
board.cache_hierarchy.ruby_system.L1Cache_Controller.E_IL0.L0_Ack |        4705     23.62%     23.62% |        2056     10.32%     33.94% |        1977      9.93%     43.87% |        1994     10.01%     53.88% |        2099     10.54%     64.42% |        3070     15.41%     79.83% |        2158     10.83%     90.66% |        1860      9.34%    100.00% (Unspecified)
board.cache_hierarchy.ruby_system.L1Cache_Controller.E_IL0.L0_Ack::total        19919                       (Unspecified)
board.cache_hierarchy.ruby_system.L1Cache_Controller.M_IL0.L0_DataAck |        1171     11.64%     11.64% |        1030     10.24%     21.88% |        1303     12.95%     34.83% |         924      9.18%     44.01% |        1591     15.81%     59.83% |        1197     11.90%     71.72% |         927      9.21%     80.94% |        1918     19.06%    100.00% (Unspecified)
board.cache_hierarchy.ruby_system.L1Cache_Controller.M_IL0.L0_DataAck::total        10061                       (Unspecified)
board.cache_hierarchy.ruby_system.L1Cache_Controller.M_IL0.L0_Invalidate_Own |           2      1.94%      1.94% |           1      0.97%      2.91% |           0      0.00%      2.91% |           1      0.97%      3.88% |           1      0.97%      4.85% |          96     93.20%     98.06% |           1      0.97%     99.03% |           1      0.97%    100.00% (Unspecified)
board.cache_hierarchy.ruby_system.L1Cache_Controller.M_IL0.L0_Invalidate_Own::total          103                       (Unspecified)
board.cache_hierarchy.ruby_system.L1Cache_Controller.M_IL0.L0_Invalidate_Else |        1311     11.70%     11.70% |        1174     10.47%     22.17% |        1474     13.15%     35.32% |        1053      9.39%     44.71% |        1713     15.28%     60.00% |        1329     11.86%     71.85% |        1076      9.60%     81.45% |        2079     18.55%    100.00% (Unspecified)
board.cache_hierarchy.ruby_system.L1Cache_Controller.M_IL0.L0_Invalidate_Else::total        11209                       (Unspecified)
board.cache_hierarchy.ruby_system.L1Cache_Controller.M_IL0.L0_Ack |         142     11.35%     11.35% |         145     11.59%     22.94% |         171     13.67%     36.61% |         130     10.39%     47.00% |         123      9.83%     56.83% |         228     18.23%     75.06% |         150     11.99%     87.05% |         162     12.95%    100.00% (Unspecified)
board.cache_hierarchy.ruby_system.L1Cache_Controller.M_IL0.L0_Ack::total         1251                       (Unspecified)
board.cache_hierarchy.ruby_system.L1Cache_Controller.SM_IL0.L0_Invalidate_Else |           1     14.29%     14.29% |           1     14.29%     28.57% |           1     14.29%     42.86% |           1     14.29%     57.14% |           1     14.29%     71.43% |           1     14.29%     85.71% |           1     14.29%    100.00% |           0      0.00%    100.00% (Unspecified)
board.cache_hierarchy.ruby_system.L1Cache_Controller.SM_IL0.L0_Invalidate_Else::total            7                       (Unspecified)
board.cache_hierarchy.ruby_system.L1Cache_Controller.SM_IL0.L0_Ack |           1     14.29%     14.29% |           1     14.29%     28.57% |           1     14.29%     42.86% |           1     14.29%     57.14% |           1     14.29%     71.43% |           1     14.29%     85.71% |           1     14.29%    100.00% |           0      0.00%    100.00% (Unspecified)
board.cache_hierarchy.ruby_system.L1Cache_Controller.SM_IL0.L0_Ack::total            7                       (Unspecified)
board.cache_hierarchy.ruby_system.L2Cache_Controller.L1_GETS      5360158      0.00%      0.00% (Unspecified)
board.cache_hierarchy.ruby_system.L2Cache_Controller.L1_GETX       198931      0.00%      0.00% (Unspecified)
board.cache_hierarchy.ruby_system.L2Cache_Controller.L1_UPGRADE        88788      0.00%      0.00% (Unspecified)
board.cache_hierarchy.ruby_system.L2Cache_Controller.L1_PUTX      3627813      0.00%      0.00% (Unspecified)
board.cache_hierarchy.ruby_system.L2Cache_Controller.L2_Replacement       534572      0.00%      0.00% (Unspecified)
board.cache_hierarchy.ruby_system.L2Cache_Controller.L2_Replacement_clean      2437833      0.00%      0.00% (Unspecified)
board.cache_hierarchy.ruby_system.L2Cache_Controller.Mem_Data      3103476      0.00%      0.00% (Unspecified)
board.cache_hierarchy.ruby_system.L2Cache_Controller.Mem_Ack      2972405      0.00%      0.00% (Unspecified)
board.cache_hierarchy.ruby_system.L2Cache_Controller.WB_Data        71847      0.00%      0.00% (Unspecified)
board.cache_hierarchy.ruby_system.L2Cache_Controller.WB_Data_clean       121094      0.00%      0.00% (Unspecified)
board.cache_hierarchy.ruby_system.L2Cache_Controller.Ack       282430      0.00%      0.00% (Unspecified)
board.cache_hierarchy.ruby_system.L2Cache_Controller.Ack_all       101324      0.00%      0.00% (Unspecified)
board.cache_hierarchy.ruby_system.L2Cache_Controller.Unblock       190268      0.00%      0.00% (Unspecified)
board.cache_hierarchy.ruby_system.L2Cache_Controller.Exclusive_Unblock      3856541      0.00%      0.00% (Unspecified)
board.cache_hierarchy.ruby_system.L2Cache_Controller.NP.L1_GETS      3033807      0.00%      0.00% (Unspecified)
board.cache_hierarchy.ruby_system.L2Cache_Controller.NP.L1_GETX        69670      0.00%      0.00% (Unspecified)
board.cache_hierarchy.ruby_system.L2Cache_Controller.SS.L1_GETS      1596808      0.00%      0.00% (Unspecified)
board.cache_hierarchy.ruby_system.L2Cache_Controller.SS.L1_GETX          478      0.00%      0.00% (Unspecified)
board.cache_hierarchy.ruby_system.L2Cache_Controller.SS.L1_UPGRADE        88774      0.00%      0.00% (Unspecified)
board.cache_hierarchy.ruby_system.L2Cache_Controller.SS.L1_PUTX            1      0.00%      0.00% (Unspecified)
board.cache_hierarchy.ruby_system.L2Cache_Controller.SS.L2_Replacement        51161      0.00%      0.00% (Unspecified)
board.cache_hierarchy.ruby_system.L2Cache_Controller.SS.L2_Replacement_clean        50161      0.00%      0.00% (Unspecified)
board.cache_hierarchy.ruby_system.L2Cache_Controller.M.L1_GETS       536161      0.00%      0.00% (Unspecified)
board.cache_hierarchy.ruby_system.L2Cache_Controller.M.L1_GETX       124988      0.00%      0.00% (Unspecified)
board.cache_hierarchy.ruby_system.L2Cache_Controller.M.L2_Replacement       483168      0.00%      0.00% (Unspecified)
board.cache_hierarchy.ruby_system.L2Cache_Controller.M.L2_Replacement_clean      2385240      0.00%      0.00% (Unspecified)
board.cache_hierarchy.ruby_system.L2Cache_Controller.MT.L1_GETS       190268      0.00%      0.00% (Unspecified)
board.cache_hierarchy.ruby_system.L2Cache_Controller.MT.L1_GETX         3357      0.00%      0.00% (Unspecified)
board.cache_hierarchy.ruby_system.L2Cache_Controller.MT.L1_PUTX      3627811      0.00%      0.00% (Unspecified)
board.cache_hierarchy.ruby_system.L2Cache_Controller.MT.L2_Replacement          243      0.00%      0.00% (Unspecified)
board.cache_hierarchy.ruby_system.L2Cache_Controller.MT.L2_Replacement_clean         2432      0.00%      0.00% (Unspecified)
board.cache_hierarchy.ruby_system.L2Cache_Controller.M_I.L1_GETS            6      0.00%      0.00% (Unspecified)
board.cache_hierarchy.ruby_system.L2Cache_Controller.M_I.L1_GETX            5      0.00%      0.00% (Unspecified)
board.cache_hierarchy.ruby_system.L2Cache_Controller.M_I.Mem_Ack      2972405      0.00%      0.00% (Unspecified)
board.cache_hierarchy.ruby_system.L2Cache_Controller.MT_I.WB_Data          146      0.00%      0.00% (Unspecified)
board.cache_hierarchy.ruby_system.L2Cache_Controller.MT_I.WB_Data_clean           97      0.00%      0.00% (Unspecified)
board.cache_hierarchy.ruby_system.L2Cache_Controller.MCT_I.WB_Data          598      0.00%      0.00% (Unspecified)
board.cache_hierarchy.ruby_system.L2Cache_Controller.MCT_I.WB_Data_clean         1832      0.00%      0.00% (Unspecified)
board.cache_hierarchy.ruby_system.L2Cache_Controller.MCT_I.Ack_all            2      0.00%      0.00% (Unspecified)
board.cache_hierarchy.ruby_system.L2Cache_Controller.I_I.L1_GETS            1      0.00%      0.00% (Unspecified)
board.cache_hierarchy.ruby_system.L2Cache_Controller.I_I.Ack       117092      0.00%      0.00% (Unspecified)
board.cache_hierarchy.ruby_system.L2Cache_Controller.I_I.Ack_all        50161      0.00%      0.00% (Unspecified)
board.cache_hierarchy.ruby_system.L2Cache_Controller.S_I.L1_GETS            1      0.00%      0.00% (Unspecified)
board.cache_hierarchy.ruby_system.L2Cache_Controller.S_I.Ack       165338      0.00%      0.00% (Unspecified)
board.cache_hierarchy.ruby_system.L2Cache_Controller.S_I.Ack_all        51161      0.00%      0.00% (Unspecified)
board.cache_hierarchy.ruby_system.L2Cache_Controller.ISS.L1_GETS          693      0.00%      0.00% (Unspecified)
board.cache_hierarchy.ruby_system.L2Cache_Controller.ISS.Mem_Data      3033114      0.00%      0.00% (Unspecified)
board.cache_hierarchy.ruby_system.L2Cache_Controller.IS.L1_GETS         1789      0.00%      0.00% (Unspecified)
board.cache_hierarchy.ruby_system.L2Cache_Controller.IS.Mem_Data          693      0.00%      0.00% (Unspecified)
board.cache_hierarchy.ruby_system.L2Cache_Controller.IM.L1_GETX           43      0.00%      0.00% (Unspecified)
board.cache_hierarchy.ruby_system.L2Cache_Controller.IM.Mem_Data        69669      0.00%      0.00% (Unspecified)
board.cache_hierarchy.ruby_system.L2Cache_Controller.SS_MB.L1_GETS          106      0.00%      0.00% (Unspecified)
board.cache_hierarchy.ruby_system.L2Cache_Controller.SS_MB.L1_GETX           41      0.00%      0.00% (Unspecified)
board.cache_hierarchy.ruby_system.L2Cache_Controller.SS_MB.L1_UPGRADE            7      0.00%      0.00% (Unspecified)
board.cache_hierarchy.ruby_system.L2Cache_Controller.SS_MB.Exclusive_Unblock        89252      0.00%      0.00% (Unspecified)
board.cache_hierarchy.ruby_system.L2Cache_Controller.MT_MB.L1_GETS           35      0.00%      0.00% (Unspecified)
board.cache_hierarchy.ruby_system.L2Cache_Controller.MT_MB.L1_GETX          333      0.00%      0.00% (Unspecified)
board.cache_hierarchy.ruby_system.L2Cache_Controller.MT_MB.Exclusive_Unblock      3767289      0.00%      0.00% (Unspecified)
board.cache_hierarchy.ruby_system.L2Cache_Controller.MT_IIB.L1_GETS          474      0.00%      0.00% (Unspecified)
board.cache_hierarchy.ruby_system.L2Cache_Controller.MT_IIB.L1_GETX           16      0.00%      0.00% (Unspecified)
board.cache_hierarchy.ruby_system.L2Cache_Controller.MT_IIB.L1_PUTX            1      0.00%      0.00% (Unspecified)
board.cache_hierarchy.ruby_system.L2Cache_Controller.MT_IIB.WB_Data        70867      0.00%      0.00% (Unspecified)
board.cache_hierarchy.ruby_system.L2Cache_Controller.MT_IIB.WB_Data_clean       118873      0.00%      0.00% (Unspecified)
board.cache_hierarchy.ruby_system.L2Cache_Controller.MT_IIB.Unblock          528      0.00%      0.00% (Unspecified)
board.cache_hierarchy.ruby_system.L2Cache_Controller.MT_IB.WB_Data          236      0.00%      0.00% (Unspecified)
board.cache_hierarchy.ruby_system.L2Cache_Controller.MT_IB.WB_Data_clean          292      0.00%      0.00% (Unspecified)
board.cache_hierarchy.ruby_system.L2Cache_Controller.MT_SB.L1_GETS            9      0.00%      0.00% (Unspecified)
board.cache_hierarchy.ruby_system.L2Cache_Controller.MT_SB.L1_UPGRADE            7      0.00%      0.00% (Unspecified)
board.cache_hierarchy.ruby_system.L2Cache_Controller.MT_SB.Unblock       189740      0.00%      0.00% (Unspecified)
board.cache_hierarchy.ruby_system.RequestType.LD.latency_hist_seqr::bucket_size          256                       (Unspecified)
board.cache_hierarchy.ruby_system.RequestType.LD.latency_hist_seqr::max_bucket         2559                       (Unspecified)
board.cache_hierarchy.ruby_system.RequestType.LD.latency_hist_seqr::samples     69420806                       (Unspecified)
board.cache_hierarchy.ruby_system.RequestType.LD.latency_hist_seqr::mean    11.405063                       (Unspecified)
board.cache_hierarchy.ruby_system.RequestType.LD.latency_hist_seqr::gmean     1.428938                       (Unspecified)
board.cache_hierarchy.ruby_system.RequestType.LD.latency_hist_seqr::stdev    53.864231                       (Unspecified)
board.cache_hierarchy.ruby_system.RequestType.LD.latency_hist_seqr |    69159665     99.62%     99.62% |      188008      0.27%     99.89% |       17727      0.03%     99.92% |       15681      0.02%     99.94% |       32860      0.05%     99.99% |        6246      0.01%    100.00% |         586      0.00%    100.00% |          33      0.00%    100.00% |           0      0.00%    100.00% |           0      0.00%    100.00% (Unspecified)
board.cache_hierarchy.ruby_system.RequestType.LD.latency_hist_seqr::total     69420806                       (Unspecified)
board.cache_hierarchy.ruby_system.RequestType.LD.hit_latency_hist_seqr::bucket_size            1                       (Unspecified)
board.cache_hierarchy.ruby_system.RequestType.LD.hit_latency_hist_seqr::max_bucket            9                       (Unspecified)
board.cache_hierarchy.ruby_system.RequestType.LD.hit_latency_hist_seqr::samples     62925862                       (Unspecified)
board.cache_hierarchy.ruby_system.RequestType.LD.hit_latency_hist_seqr::mean            1                       (Unspecified)
board.cache_hierarchy.ruby_system.RequestType.LD.hit_latency_hist_seqr::gmean            1                       (Unspecified)
board.cache_hierarchy.ruby_system.RequestType.LD.hit_latency_hist_seqr |           0      0.00%      0.00% |    62925862    100.00%    100.00% |           0      0.00%    100.00% |           0      0.00%    100.00% |           0      0.00%    100.00% |           0      0.00%    100.00% |           0      0.00%    100.00% |           0      0.00%    100.00% |           0      0.00%    100.00% |           0      0.00%    100.00% (Unspecified)
board.cache_hierarchy.ruby_system.RequestType.LD.hit_latency_hist_seqr::total     62925862                       (Unspecified)
board.cache_hierarchy.ruby_system.RequestType.LD.miss_latency_hist_seqr::bucket_size          256                       (Unspecified)
board.cache_hierarchy.ruby_system.RequestType.LD.miss_latency_hist_seqr::max_bucket         2559                       (Unspecified)
board.cache_hierarchy.ruby_system.RequestType.LD.miss_latency_hist_seqr::samples      6494944                       (Unspecified)
[...]
board.processor.switch7.core.commitStats0.cpi     5.982965                       # CPI: cycles per instruction (thread level) ((Cycle/Count))
board.processor.switch7.core.commitStats0.ipc     0.167141                       # IPC: instructions per cycle (thread level) ((Count/Cycle))
board.processor.switch7.core.commitStats0.numMemRefs            0                       # Number of memory references committed (Count)
board.processor.switch7.core.commitStats0.numFpInsts       389870                       # Number of float instructions (Count)
board.processor.switch7.core.commitStats0.numIntInsts     49810581                       # Number of integer instructions (Count)
board.processor.switch7.core.commitStats0.numLoadInsts      8045707                       # Number of load instructions (Count)
board.processor.switch7.core.commitStats0.numStoreInsts       647595                       # Number of store instructions (Count)
board.processor.switch7.core.commitStats0.numVecInsts            0                       # Number of vector instructions (Count)
board.processor.switch7.core.commitStats0.committedInstType::No_OpClass          471      0.00%      0.00% # Class of committed instruction. (Count)
board.processor.switch7.core.commitStats0.committedInstType::IntAlu     41804295     82.46%     82.46% # Class of committed instruction. (Count)
board.processor.switch7.core.commitStats0.committedInstType::IntMult         1428      0.00%     82.46% # Class of committed instruction. (Count)
board.processor.switch7.core.commitStats0.committedInstType::IntDiv         3024      0.01%     82.47% # Class of committed instruction. (Count)
board.processor.switch7.core.commitStats0.committedInstType::FloatAdd           16      0.00%     82.47% # Class of committed instruction. (Count)
board.processor.switch7.core.commitStats0.committedInstType::FloatCmp            0      0.00%     82.47% # Class of committed instruction. (Count)
board.processor.switch7.core.commitStats0.committedInstType::FloatCvt           16      0.00%     82.47% # Class of committed instruction. (Count)
board.processor.switch7.core.commitStats0.committedInstType::FloatMult            0      0.00%     82.47% # Class of committed instruction. (Count)
board.processor.switch7.core.commitStats0.committedInstType::FloatMultAcc            0      0.00%     82.47% # Class of committed instruction. (Count)
board.processor.switch7.core.commitStats0.committedInstType::FloatDiv            0      0.00%     82.47% # Class of committed instruction. (Count)
board.processor.switch7.core.commitStats0.committedInstType::FloatMisc            0      0.00%     82.47% # Class of committed instruction. (Count)
board.processor.switch7.core.commitStats0.committedInstType::FloatSqrt            0      0.00%     82.47% # Class of committed instruction. (Count)
board.processor.switch7.core.commitStats0.committedInstType::SimdAdd       194818      0.38%     82.85% # Class of committed instruction. (Count)
board.processor.switch7.core.commitStats0.committedInstType::SimdAddAcc            0      0.00%     82.85% # Class of committed instruction. (Count)
board.processor.switch7.core.commitStats0.committedInstType::SimdAlu           28      0.00%     82.85% # Class of committed instruction. (Count)
board.processor.switch7.core.commitStats0.committedInstType::SimdCmp            0      0.00%     82.85% # Class of committed instruction. (Count)
board.processor.switch7.core.commitStats0.committedInstType::SimdCvt           36      0.00%     82.85% # Class of committed instruction. (Count)
board.processor.switch7.core.commitStats0.committedInstType::SimdMisc           20      0.00%     82.85% # Class of committed instruction. (Count)
board.processor.switch7.core.commitStats0.committedInstType::SimdMult            0      0.00%     82.85% # Class of committed instruction. (Count)
board.processor.switch7.core.commitStats0.committedInstType::SimdMultAcc            0      0.00%     82.85% # Class of committed instruction. (Count)
board.processor.switch7.core.commitStats0.committedInstType::SimdMatMultAcc            0      0.00%     82.85% # Class of committed instruction. (Count)
board.processor.switch7.core.commitStats0.committedInstType::SimdShift           18      0.00%     82.85% # Class of committed instruction. (Count)
board.processor.switch7.core.commitStats0.committedInstType::SimdShiftAcc            0      0.00%     82.85% # Class of committed instruction. (Count)
board.processor.switch7.core.commitStats0.committedInstType::SimdDiv            0      0.00%     82.85% # Class of committed instruction. (Count)
board.processor.switch7.core.commitStats0.committedInstType::SimdSqrt            0      0.00%     82.85% # Class of committed instruction. (Count)
board.processor.switch7.core.commitStats0.committedInstType::SimdFloatAdd            0      0.00%     82.85% # Class of committed instruction. (Count)
board.processor.switch7.core.commitStats0.committedInstType::SimdFloatAlu            0      0.00%     82.85% # Class of committed instruction. (Count)
board.processor.switch7.core.commitStats0.committedInstType::SimdFloatCmp            0      0.00%     82.85% # Class of committed instruction. (Count)
board.processor.switch7.core.commitStats0.committedInstType::SimdFloatCvt            0      0.00%     82.85% # Class of committed instruction. (Count)
board.processor.switch7.core.commitStats0.committedInstType::SimdFloatDiv            0      0.00%     82.85% # Class of committed instruction. (Count)
board.processor.switch7.core.commitStats0.committedInstType::SimdFloatMisc            0      0.00%     82.85% # Class of committed instruction. (Count)
board.processor.switch7.core.commitStats0.committedInstType::SimdFloatMult            0      0.00%     82.85% # Class of committed instruction. (Count)
board.processor.switch7.core.commitStats0.committedInstType::SimdFloatMultAcc            0      0.00%     82.85% # Class of committed instruction. (Count)
board.processor.switch7.core.commitStats0.committedInstType::SimdFloatMatMultAcc            0      0.00%     82.85% # Class of committed instruction. (Count)
board.processor.switch7.core.commitStats0.committedInstType::SimdFloatSqrt            0      0.00%     82.85% # Class of committed instruction. (Count)
board.processor.switch7.core.commitStats0.committedInstType::SimdReduceAdd            0      0.00%     82.85% # Class of committed instruction. (Count)
board.processor.switch7.core.commitStats0.committedInstType::SimdReduceAlu            0      0.00%     82.85% # Class of committed instruction. (Count)
board.processor.switch7.core.commitStats0.committedInstType::SimdReduceCmp            0      0.00%     82.85% # Class of committed instruction. (Count)
board.processor.switch7.core.commitStats0.committedInstType::SimdFloatReduceAdd            0      0.00%     82.85% # Class of committed instruction. (Count)
board.processor.switch7.core.commitStats0.committedInstType::SimdFloatReduceCmp            0      0.00%     82.85% # Class of committed instruction. (Count)
board.processor.switch7.core.commitStats0.committedInstType::SimdAes            0      0.00%     82.85% # Class of committed instruction. (Count)
board.processor.switch7.core.commitStats0.committedInstType::SimdAesMix            0      0.00%     82.85% # Class of committed instruction. (Count)
board.processor.switch7.core.commitStats0.committedInstType::SimdSha1Hash            0      0.00%     82.85% # Class of committed instruction. (Count)
board.processor.switch7.core.commitStats0.committedInstType::SimdSha1Hash2            0      0.00%     82.85% # Class of committed instruction. (Count)
board.processor.switch7.core.commitStats0.committedInstType::SimdSha256Hash            0      0.00%     82.85% # Class of committed instruction. (Count)
board.processor.switch7.core.commitStats0.committedInstType::SimdSha256Hash2            0      0.00%     82.85% # Class of committed instruction. (Count)
board.processor.switch7.core.commitStats0.committedInstType::SimdShaSigma2            0      0.00%     82.85% # Class of committed instruction. (Count)
board.processor.switch7.core.commitStats0.committedInstType::SimdShaSigma3            0      0.00%     82.85% # Class of committed instruction. (Count)
board.processor.switch7.core.commitStats0.committedInstType::SimdPredAlu            0      0.00%     82.85% # Class of committed instruction. (Count)
board.processor.switch7.core.commitStats0.committedInstType::Matrix            0      0.00%     82.85% # Class of committed instruction. (Count)
board.processor.switch7.core.commitStats0.committedInstType::MatrixMov            0      0.00%     82.85% # Class of committed instruction. (Count)
board.processor.switch7.core.commitStats0.committedInstType::MatrixOP            0      0.00%     82.85% # Class of committed instruction. (Count)
board.processor.switch7.core.commitStats0.committedInstType::MemRead      8045628     15.87%     98.72% # Class of committed instruction. (Count)
board.processor.switch7.core.commitStats0.committedInstType::MemWrite       452761      0.89%     99.62% # Class of committed instruction. (Count)
board.processor.switch7.core.commitStats0.committedInstType::FloatMemRead           79      0.00%     99.62% # Class of committed instruction. (Count)
board.processor.switch7.core.commitStats0.committedInstType::FloatMemWrite       194834      0.38%    100.00% # Class of committed instruction. (Count)
board.processor.switch7.core.commitStats0.committedInstType::IprAccess            0      0.00%    100.00% # Class of committed instruction. (Count)
board.processor.switch7.core.commitStats0.committedInstType::InstPrefetch            0      0.00%    100.00% # Class of committed instruction. (Count)
board.processor.switch7.core.commitStats0.committedInstType::SimdUnitStrideLoad            0      0.00%    100.00% # Class of committed instruction. (Count)
board.processor.switch7.core.commitStats0.committedInstType::SimdUnitStrideStore            0      0.00%    100.00% # Class of committed instruction. (Count)
board.processor.switch7.core.commitStats0.committedInstType::SimdUnitStrideMaskLoad            0      0.00%    100.00% # Class of committed instruction. (Count)
board.processor.switch7.core.commitStats0.committedInstType::SimdUnitStrideMaskStore            0      0.00%    100.00% # Class of committed instruction. (Count)
board.processor.switch7.core.commitStats0.committedInstType::SimdStridedLoad            0      0.00%    100.00% # Class of committed instruction. (Count)
board.processor.switch7.core.commitStats0.committedInstType::SimdStridedStore            0      0.00%    100.00% # Class of committed instruction. (Count)
board.processor.switch7.core.commitStats0.committedInstType::SimdIndexedLoad            0      0.00%    100.00% # Class of committed instruction. (Count)
board.processor.switch7.core.commitStats0.committedInstType::SimdIndexedStore            0      0.00%    100.00% # Class of committed instruction. (Count)
board.processor.switch7.core.commitStats0.committedInstType::SimdWholeRegisterLoad            0      0.00%    100.00% # Class of committed instruction. (Count)
board.processor.switch7.core.commitStats0.committedInstType::SimdWholeRegisterStore            0      0.00%    100.00% # Class of committed instruction. (Count)
board.processor.switch7.core.commitStats0.committedInstType::SimdUnitStrideFaultOnlyFirstLoad            0      0.00%    100.00% # Class of committed instruction. (Count)
board.processor.switch7.core.commitStats0.committedInstType::SimdUnitStrideSegmentedLoad            0      0.00%    100.00% # Class of committed instruction. (Count)
board.processor.switch7.core.commitStats0.committedInstType::SimdUnitStrideSegmentedStore            0      0.00%    100.00% # Class of committed instruction. (Count)
board.processor.switch7.core.commitStats0.committedInstType::SimdExt            0      0.00%    100.00% # Class of committed instruction. (Count)
board.processor.switch7.core.commitStats0.committedInstType::SimdFloatExt            0      0.00%    100.00% # Class of committed instruction. (Count)
board.processor.switch7.core.commitStats0.committedInstType::SimdConfig            0      0.00%    100.00% # Class of committed instruction. (Count)
board.processor.switch7.core.commitStats0.committedInstType::total     50697472                       # Class of committed instruction. (Count)
board.processor.switch7.core.commitStats0.committedControl::IsControl      6150101                       # Class of control type instructions committed (Count)
board.processor.switch7.core.commitStats0.committedControl::IsDirectControl      6144898                       # Class of control type instructions committed (Count)
board.processor.switch7.core.commitStats0.committedControl::IsIndirectControl         5069                       # Class of control type instructions committed (Count)
board.processor.switch7.core.commitStats0.committedControl::IsCondControl      5351903                       # Class of control type instructions committed (Count)
board.processor.switch7.core.commitStats0.committedControl::IsUncondControl       798192                       # Class of control type instructions committed (Count)
board.processor.switch7.core.commitStats0.committedControl::IsCall         4944                       # Class of control type instructions committed (Count)
board.processor.switch7.core.commitStats0.committedControl::IsReturn         4944                       # Class of control type instructions committed (Count)
board.processor.switch7.core.exec_context.thread_0.numMatAluAccesses            0                       # Number of matrix alu accesses (Count)
board.processor.switch7.core.exec_context.thread_0.numCallsReturns         9888                       # Number of times a function call or return occured (Count)
board.processor.switch7.core.exec_context.thread_0.numMatInsts            0                       # Number of matrix instructions (Count)
board.processor.switch7.core.exec_context.thread_0.numIdleCycles            0                       # Number of idle cycles (Cycle)
board.processor.switch7.core.exec_context.thread_0.numBusyCycles    191494163                       # Number of busy cycles (Cycle)
board.processor.switch7.core.exec_context.thread_0.notIdleFraction            1                       # Percentage of non-idle cycles (Ratio)
board.processor.switch7.core.exec_context.thread_0.idleFraction            0                       # Percentage of idle cycles (Ratio)
board.processor.switch7.core.executeStats0.numInsts            0                       # Number of executed instructions (Count)
board.processor.switch7.core.executeStats0.numNop            0                       # Number of nop insts executed (Count)
board.processor.switch7.core.executeStats0.numBranches            0                       # Number of branches executed (Count)
board.processor.switch7.core.executeStats0.numLoadInsts            0                       # Number of load instructions executed (Count)
board.processor.switch7.core.executeStats0.numStoreInsts      8693302                       # Number of stores executed (Count)
board.processor.switch7.core.executeStats0.instRate            0                       # Inst execution rate ((Count/Cycle))
board.processor.switch7.core.executeStats0.numFpAluAccesses       389870                       # Number of float alu accesses (Count)
board.processor.switch7.core.executeStats0.numFpRegReads       779538                       # Number of times the floating registers were read (Count)
board.processor.switch7.core.executeStats0.numFpRegWrites       195002                       # Number of times the floating registers were written (Count)
board.processor.switch7.core.executeStats0.numIntAluAccesses     49810581                       # Number of integer alu accesses (Count)
board.processor.switch7.core.executeStats0.numIntRegReads     65036889                       # Number of times the integer registers were read (Count)
board.processor.switch7.core.executeStats0.numIntRegWrites     37036910                       # Number of times the integer registers were written (Count)
board.processor.switch7.core.executeStats0.numMemRefs      8693302                       # Number of memory refs (Count)
board.processor.switch7.core.executeStats0.numMiscRegReads     20995701                       # Number of times the Misc registers were read (Count)
board.processor.switch7.core.executeStats0.numMiscRegWrites         2178                       # Number of times the Misc registers were written (Count)
board.processor.switch7.core.executeStats0.numVecAluAccesses            0                       # Number of vector alu accesses (Count)
board.processor.switch7.core.executeStats0.numDiscardedOps            0                       # Number of ops (including micro ops) which were discarded before commit (Count)
board.processor.switch7.core.fetchStats0.numInsts     32006565                       # Number of instructions fetched (thread level) (Count)
board.processor.switch7.core.fetchStats0.numOps     50697472                       # Number of ops (including micro ops) fetched (thread level) (Count)
board.processor.switch7.core.fetchStats0.fetchRate     0.167141                       # Number of inst fetches per cycle ((Count/Cycle))
board.processor.switch7.core.fetchStats0.numBranches      6150101                       # Number of branches fetched (Count)
board.processor.switch7.core.fetchStats0.branchRate     0.032116                       # Number of branch fetches per cycle (Ratio)
board.processor.switch7.core.fetchStats0.numFetchSuspends            0                       # Number of times Execute suspended instruction fetching (Count)
board.processor.switch7.core.mmu.dtb.rdAccesses      8241254                       # TLB accesses on read requests (Count)
board.processor.switch7.core.mmu.dtb.wrAccesses       648090                       # TLB accesses on write requests (Count)
board.processor.switch7.core.mmu.dtb.rdMisses       195547                       # TLB misses on read requests (Count)
board.processor.switch7.core.mmu.dtb.wrMisses          495                       # TLB misses on write requests (Count)
board.processor.switch7.core.mmu.dtb.walker.power_state.pwrStateResidencyTicks::UNDEFINED 140589124710437                       # Cumulative time (in ticks) in various power states (Tick)
board.processor.switch7.core.mmu.itb.rdAccesses            0                       # TLB accesses on read requests (Count)
board.processor.switch7.core.mmu.itb.wrAccesses     39997480                       # TLB accesses on write requests (Count)
board.processor.switch7.core.mmu.itb.rdMisses            0                       # TLB misses on read requests (Count)
board.processor.switch7.core.mmu.itb.wrMisses          277                       # TLB misses on write requests (Count)
board.processor.switch7.core.mmu.itb.walker.power_state.pwrStateResidencyTicks::UNDEFINED 140589124710437                       # Cumulative time (in ticks) in various power states (Tick)
board.processor.switch7.core.power_state.pwrStateResidencyTicks::OFF 140589124710437                       # Cumulative time (in ticks) in various power states (Tick)
board.processor.switch7.core.thread_0.numInsts            0                       # Number of Instructions committed (Count)
board.processor.switch7.core.thread_0.numOps            0                       # Number of Ops committed (Count)
board.processor.switch7.core.thread_0.numMemRefs            0                       # Number of Memory References (Count)
board.workload.inst.arm                             0                       # number of arm instructions executed (Count)
board.workload.inst.quiesce                         0                       # number of quiesce instructions executed (Count)

---------- End Simulation Statistics   ----------
